SY Dwire=1	'mm
SY H=7.0
SY L=5.161752
GW	300	9	0	0	-L/2	0	0	L/2	Dwire/2000
GM	0	0	90	0	0	0	0	H
GE -1
LD	5	0	0	0	58000000
GN 2 0 0 0 15 0.01
EX	0	300	5	0	1	0
FR,0,1,0,0,28.07
PQ -1
PT -1
