CM
CE
SY Top=9.0
SY Sz=0.525
SY Sx=0.28
SY Cap=10

SY B=Top-Sz
'
GW	1	3	-0.01	0.	B	0.01	0	B	.005
GW	2	3	-0.01	0.	B	-Sx/2	0.0	B	.005
GW	3	3	0.01	0.	B	Sx/2	0.0	B	.005
GW	4	3	-Sx/2	0.	B	-Sx/2	0.0	B+Sz	.005
GW	5	3	Sx/2	0.	B	Sx/2	0.0	B+Sz	.005
GW	6	1	-Sx/2	0.	B+Sz	Sx/2	0.0	B+Sz	.005

'
GM	0	0	0	0	32 	0	0	0

GE -1
GN 2 0 0 0 11 0.01
LD	0	2	1	1	0	0	Cap/1e12
EX	0	5	1	0	1.
FR	0	5	0	0	144.2	1.0
EN
