CM
CM
CM
CM forw: 85, 265 ; back: 85, 85
CE
SY Len=3.04891
SY BASE=7.0
GW	1	9	-Len/2	0.	BASE	Len/2	0.0	BASE	.005
GE -1
GN 2 0 0 0 15 0.01
EX  0    1    5    0  1.
FR,0,1,0,0,144
PQ -1
PT -1
