SY Dwire=1	'mm
SY MHz=7.05
SY H=7.0
SY Ind=4.048e-5
SY IndQ=500
SY Xl=1/(2*3.141*MHz*1e6*Ind)
SY IndESR=Xl/IndQ
SY L=10


GW	300	9	0	0	-L/4	0	0	L/4	Dwire/2000
GW	301	9	-L/4	0	-L/4	0	0	-L/4	Dwire/2000
'GW	302	9	0	0	-L/4	L/4	0	-L/4	Dwire/2000
GW	303	9	0	0	L/4	L/4	0	L/4	Dwire/2000
'GW	304	9	-L/4	0	L/4	0	0	L/4	Dwire/2000
GM	0	0	0	0	0	0	0	H
GE -1
LD	5	0	0	0	58000000
LD	0	300	9	9	IndESR	Ind	1
LD	0	300	1	1	IndESR	Ind	1

GN 2 0 0 0 11 0.01
EX	0	300	5	0	1	0
FR	0	1	0	0	MHz	0
EN						
