CM Length X1 = 3
CM Length X2 = 3
CM Length Y = 3
CM X sections = 10
CM Y sections = 10
CM Rotate X, Y, Z = 0, 90, 0
CM Move X, Y, Z = 0, 0, 0
CE
GW   100   10    -2.23     -1.5      6.5    -2.23     -1.2      6.5  .023873
GW   101   10    -2.23     -1.2      6.5    -2.23      -.9      6.5  .023873
GW   102   10    -2.23      -.9      6.5    -2.23      -.6      6.5  .023873
GW   103   10    -2.23      -.6      6.5    -2.23      -.3      6.5  .023873
GW   104   10    -2.23      -.3      6.5    -2.23       .0      6.5  .023873
GW   105   10    -2.23       .0      6.5    -2.23       .3      6.5  .023873
GW   106   10    -2.23       .3      6.5    -2.23       .6      6.5  .023873
GW   107   10    -2.23       .6      6.5    -2.23       .9      6.5  .023873
GW   108   10    -2.23       .9      6.5    -2.23      1.2      6.5  .023873
GW   109   10    -2.23      1.2      6.5    -2.23      1.5      6.5  .023873
GW   110   10    -2.23     -1.5      6.2    -2.23     -1.2      6.2  .023873
GW   111   10    -2.23     -1.2      6.2    -2.23      -.9      6.2  .023873
GW   112   10    -2.23      -.9      6.2    -2.23      -.6      6.2  .023873
GW   113   10    -2.23      -.6      6.2    -2.23      -.3      6.2  .023873
GW   114   10    -2.23      -.3      6.2    -2.23       .0      6.2  .023873
GW   115   10    -2.23       .0      6.2    -2.23       .3      6.2  .023873
GW   116   10    -2.23       .3      6.2    -2.23       .6      6.2  .023873
GW   117   10    -2.23       .6      6.2    -2.23       .9      6.2  .023873
GW   118   10    -2.23       .9      6.2    -2.23      1.2      6.2  .023873
GW   119   10    -2.23      1.2      6.2    -2.23      1.5      6.2  .023873
GW   120   10    -2.23     -1.5      5.9    -2.23     -1.2      5.9  .023873
GW   121   10    -2.23     -1.2      5.9    -2.23      -.9      5.9  .023873
GW   122   10    -2.23      -.9      5.9    -2.23      -.6      5.9  .023873
GW   123   10    -2.23      -.6      5.9    -2.23      -.3      5.9  .023873
GW   124   10    -2.23      -.3      5.9    -2.23       .0      5.9  .023873
GW   125   10    -2.23       .0      5.9    -2.23       .3      5.9  .023873
GW   126   10    -2.23       .3      5.9    -2.23       .6      5.9  .023873
GW   127   10    -2.23       .6      5.9    -2.23       .9      5.9  .023873
GW   128   10    -2.23       .9      5.9    -2.23      1.2      5.9  .023873
GW   129   10    -2.23      1.2      5.9    -2.23      1.5      5.9  .023873
GW   130   10    -2.23     -1.5      5.6    -2.23     -1.2      5.6  .023873
GW   131   10    -2.23     -1.2      5.6    -2.23      -.9      5.6  .023873
GW   132   10    -2.23      -.9      5.6    -2.23      -.6      5.6  .023873
GW   133   10    -2.23      -.6      5.6    -2.23      -.3      5.6  .023873
GW   134   10    -2.23      -.3      5.6    -2.23       .0      5.6  .023873
GW   135   10    -2.23       .0      5.6    -2.23       .3      5.6  .023873
GW   136   10    -2.23       .3      5.6    -2.23       .6      5.6  .023873
GW   137   10    -2.23       .6      5.6    -2.23       .9      5.6  .023873
GW   138   10    -2.23       .9      5.6    -2.23      1.2      5.6  .023873
GW   139   10    -2.23      1.2      5.6    -2.23      1.5      5.6  .023873
GW   140   10    -2.23     -1.5      5.3    -2.23     -1.2      5.3  .023873
GW   141   10    -2.23     -1.2      5.3    -2.23      -.9      5.3  .023873
GW   142   10    -2.23      -.9      5.3    -2.23      -.6      5.3  .023873
GW   143   10    -2.23      -.6      5.3    -2.23      -.3      5.3  .023873
GW   144   10    -2.23      -.3      5.3    -2.23       .0      5.3  .023873
GW   145   10    -2.23       .0      5.3    -2.23       .3      5.3  .023873
GW   146   10    -2.23       .3      5.3    -2.23       .6      5.3  .023873
GW   147   10    -2.23       .6      5.3    -2.23       .9      5.3  .023873
GW   148   10    -2.23       .9      5.3    -2.23      1.2      5.3  .023873
GW   149   10    -2.23      1.2      5.3    -2.23      1.5      5.3  .023873
GW   150   10    -2.23     -1.5      5.0    -2.23     -1.2      5.0  .023873
GW   151   10    -2.23     -1.2      5.0    -2.23      -.9      5.0  .023873
GW   152   10    -2.23      -.9      5.0    -2.23      -.6      5.0  .023873
GW   153   10    -2.23      -.6      5.0    -2.23      -.3      5.0  .023873
GW   154   10    -2.23      -.3      5.0    -2.23       .0      5.0  .023873
GW   155   10    -2.23       .0      5.0    -2.23       .3      5.0  .023873
GW   156   10    -2.23       .3      5.0    -2.23       .6      5.0  .023873
GW   157   10    -2.23       .6      5.0    -2.23       .9      5.0  .023873
GW   158   10    -2.23       .9      5.0    -2.23      1.2      5.0  .023873
GW   159   10    -2.23      1.2      5.0    -2.23      1.5      5.0  .023873
GW   160   10    -2.23     -1.5      4.7    -2.23     -1.2      4.7  .023873
GW   161   10    -2.23     -1.2      4.7    -2.23      -.9      4.7  .023873
GW   162   10    -2.23      -.9      4.7    -2.23      -.6      4.7  .023873
GW   163   10    -2.23      -.6      4.7    -2.23      -.3      4.7  .023873
GW   164   10    -2.23      -.3      4.7    -2.23       .0      4.7  .023873
GW   165   10    -2.23       .0      4.7    -2.23       .3      4.7  .023873
GW   166   10    -2.23       .3      4.7    -2.23       .6      4.7  .023873
GW   167   10    -2.23       .6      4.7    -2.23       .9      4.7  .023873
GW   168   10    -2.23       .9      4.7    -2.23      1.2      4.7  .023873
GW   169   10    -2.23      1.2      4.7    -2.23      1.5      4.7  .023873
GW   170   10    -2.23     -1.5      4.4    -2.23     -1.2      4.4  .023873
GW   171   10    -2.23     -1.2      4.4    -2.23      -.9      4.4  .023873
GW   172   10    -2.23      -.9      4.4    -2.23      -.6      4.4  .023873
GW   173   10    -2.23      -.6      4.4    -2.23      -.3      4.4  .023873
GW   174   10    -2.23      -.3      4.4    -2.23       .0      4.4  .023873
GW   175   10    -2.23       .0      4.4    -2.23       .3      4.4  .023873
GW   176   10    -2.23       .3      4.4    -2.23       .6      4.4  .023873
GW   177   10    -2.23       .6      4.4    -2.23       .9      4.4  .023873
GW   178   10    -2.23       .9      4.4    -2.23      1.2      4.4  .023873
GW   179   10    -2.23      1.2      4.4    -2.23      1.5      4.4  .023873
GW   180   10    -2.23     -1.5      4.1    -2.23     -1.2      4.1  .023873
GW   181   10    -2.23     -1.2      4.1    -2.23      -.9      4.1  .023873
GW   182   10    -2.23      -.9      4.1    -2.23      -.6      4.1  .023873
GW   183   10    -2.23      -.6      4.1    -2.23      -.3      4.1  .023873
GW   184   10    -2.23      -.3      4.1    -2.23       .0      4.1  .023873
GW   185   10    -2.23       .0      4.1    -2.23       .3      4.1  .023873
GW   186   10    -2.23       .3      4.1    -2.23       .6      4.1  .023873
GW   187   10    -2.23       .6      4.1    -2.23       .9      4.1  .023873
GW   188   10    -2.23       .9      4.1    -2.23      1.2      4.1  .023873
GW   189   10    -2.23      1.2      4.1    -2.23      1.5      4.1  .023873
GW   190   10    -2.23     -1.5      3.8    -2.23     -1.2      3.8  .023873
GW   191   10    -2.23     -1.2      3.8    -2.23      -.9      3.8  .023873
GW   192   10    -2.23      -.9      3.8    -2.23      -.6      3.8  .023873
GW   193   10    -2.23      -.6      3.8    -2.23      -.3      3.8  .023873
GW   194   10    -2.23      -.3      3.8    -2.23       .0      3.8  .023873
GW   195   10    -2.23       .0      3.8    -2.23       .3      3.8  .023873
GW   196   10    -2.23       .3      3.8    -2.23       .6      3.8  .023873
GW   197   10    -2.23       .6      3.8    -2.23       .9      3.8  .023873
GW   198   10    -2.23       .9      3.8    -2.23      1.2      3.8  .023873
GW   199   10    -2.23      1.2      3.8    -2.23      1.5      3.8  .023873
GW   200   10    -2.23     -1.5      3.5    -2.23     -1.2      3.5  .023873
GW   201   10    -2.23     -1.2      3.5    -2.23      -.9      3.5  .023873
GW   202   10    -2.23      -.9      3.5    -2.23      -.6      3.5  .023873
GW   203   10    -2.23      -.6      3.5    -2.23      -.3      3.5  .023873
GW   204   10    -2.23      -.3      3.5    -2.23       .0      3.5  .023873
GW   205   10    -2.23       .0      3.5    -2.23       .3      3.5  .023873
GW   206   10    -2.23       .3      3.5    -2.23       .6      3.5  .023873
GW   207   10    -2.23       .6      3.5    -2.23       .9      3.5  .023873
GW   208   10    -2.23       .9      3.5    -2.23      1.2      3.5  .023873
GW   209   10    -2.23      1.2      3.5    -2.23      1.5      3.5  .023873
GW   210   10    -2.23     -1.5      6.5    -2.23     -1.5      6.2  .023873
GW   211   10    -2.23     -1.5      6.2    -2.23     -1.5      5.9  .023873
GW   212   10    -2.23     -1.5      5.9    -2.23     -1.5      5.6  .023873
GW   213   10    -2.23     -1.5      5.6    -2.23     -1.5      5.3  .023873
GW   214   10    -2.23     -1.5      5.3    -2.23     -1.5      5.0  .023873
GW   215   10    -2.23     -1.5      5.0    -2.23     -1.5      4.7  .023873
GW   216   10    -2.23     -1.5      4.7    -2.23     -1.5      4.4  .023873
GW   217   10    -2.23     -1.5      4.4    -2.23     -1.5      4.1  .023873
GW   218   10    -2.23     -1.5      4.1    -2.23     -1.5      3.8  .023873
GW   219   10    -2.23     -1.5      3.8    -2.23     -1.5      3.5  .023873
GW   220   10    -2.23     -1.2      6.5    -2.23     -1.2      6.2  .023873
GW   221   10    -2.23     -1.2      6.2    -2.23     -1.2      5.9  .023873
GW   222   10    -2.23     -1.2      5.9    -2.23     -1.2      5.6  .023873
GW   223   10    -2.23     -1.2      5.6    -2.23     -1.2      5.3  .023873
GW   224   10    -2.23     -1.2      5.3    -2.23     -1.2      5.0  .023873
GW   225   10    -2.23     -1.2      5.0    -2.23     -1.2      4.7  .023873
GW   226   10    -2.23     -1.2      4.7    -2.23     -1.2      4.4  .023873
GW   227   10    -2.23     -1.2      4.4    -2.23     -1.2      4.1  .023873
GW   228   10    -2.23     -1.2      4.1    -2.23     -1.2      3.8  .023873
GW   229   10    -2.23     -1.2      3.8    -2.23     -1.2      3.5  .023873
GW   230   10    -2.23      -.9      6.5    -2.23      -.9      6.2  .023873
GW   231   10    -2.23      -.9      6.2    -2.23      -.9      5.9  .023873
GW   232   10    -2.23      -.9      5.9    -2.23      -.9      5.6  .023873
GW   233   10    -2.23      -.9      5.6    -2.23      -.9      5.3  .023873
GW   234   10    -2.23      -.9      5.3    -2.23      -.9      5.0  .023873
GW   235   10    -2.23      -.9      5.0    -2.23      -.9      4.7  .023873
GW   236   10    -2.23      -.9      4.7    -2.23      -.9      4.4  .023873
GW   237   10    -2.23      -.9      4.4    -2.23      -.9      4.1  .023873
GW   238   10    -2.23      -.9      4.1    -2.23      -.9      3.8  .023873
GW   239   10    -2.23      -.9      3.8    -2.23      -.9      3.5  .023873
GW   240   10    -2.23      -.6      6.5    -2.23      -.6      6.2  .023873
GW   241   10    -2.23      -.6      6.2    -2.23      -.6      5.9  .023873
GW   242   10    -2.23      -.6      5.9    -2.23      -.6      5.6  .023873
GW   243   10    -2.23      -.6      5.6    -2.23      -.6      5.3  .023873
GW   244   10    -2.23      -.6      5.3    -2.23      -.6      5.0  .023873
GW   245   10    -2.23      -.6      5.0    -2.23      -.6      4.7  .023873
GW   246   10    -2.23      -.6      4.7    -2.23      -.6      4.4  .023873
GW   247   10    -2.23      -.6      4.4    -2.23      -.6      4.1  .023873
GW   248   10    -2.23      -.6      4.1    -2.23      -.6      3.8  .023873
GW   249   10    -2.23      -.6      3.8    -2.23      -.6      3.5  .023873
GW   250   10    -2.23      -.3      6.5    -2.23      -.3      6.2  .023873
GW   251   10    -2.23      -.3      6.2    -2.23      -.3      5.9  .023873
GW   252   10    -2.23      -.3      5.9    -2.23      -.3      5.6  .023873
GW   253   10    -2.23      -.3      5.6    -2.23      -.3      5.3  .023873
GW   254   10    -2.23      -.3      5.3    -2.23      -.3      5.0  .023873
GW   255   10    -2.23      -.3      5.0    -2.23      -.3      4.7  .023873
GW   256   10    -2.23      -.3      4.7    -2.23      -.3      4.4  .023873
GW   257   10    -2.23      -.3      4.4    -2.23      -.3      4.1  .023873
GW   258   10    -2.23      -.3      4.1    -2.23      -.3      3.8  .023873
GW   259   10    -2.23      -.3      3.8    -2.23      -.3      3.5  .023873
GW   260   10    -2.23       .0      6.5    -2.23       .0      6.2  .023873
GW   261   10    -2.23       .0      6.2    -2.23       .0      5.9  .023873
GW   262   10    -2.23       .0      5.9    -2.23       .0      5.6  .023873
GW   263   10    -2.23       .0      5.6    -2.23       .0      5.3  .023873
GW   264   10    -2.23       .0      5.3    -2.23       .0      5.0  .023873
GW   265   10    -2.23       .0      5.0    -2.23       .0      4.7  .023873
GW   266   10    -2.23       .0      4.7    -2.23       .0      4.4  .023873
GW   267   10    -2.23       .0      4.4    -2.23       .0      4.1  .023873
GW   268   10    -2.23       .0      4.1    -2.23       .0      3.8  .023873
GW   269   10    -2.23       .0      3.8    -2.23       .0      3.5  .023873
GW   270   10    -2.23       .3      6.5    -2.23       .3      6.2  .023873
GW   271   10    -2.23       .3      6.2    -2.23       .3      5.9  .023873
GW   272   10    -2.23       .3      5.9    -2.23       .3      5.6  .023873
GW   273   10    -2.23       .3      5.6    -2.23       .3      5.3  .023873
GW   274   10    -2.23       .3      5.3    -2.23       .3      5.0  .023873
GW   275   10    -2.23       .3      5.0    -2.23       .3      4.7  .023873
GW   276   10    -2.23       .3      4.7    -2.23       .3      4.4  .023873
GW   277   10    -2.23       .3      4.4    -2.23       .3      4.1  .023873
GW   278   10    -2.23       .3      4.1    -2.23       .3      3.8  .023873
GW   279   10    -2.23       .3      3.8    -2.23       .3      3.5  .023873
GW   280   10    -2.23       .6      6.5    -2.23       .6      6.2  .023873
GW   281   10    -2.23       .6      6.2    -2.23       .6      5.9  .023873
GW   282   10    -2.23       .6      5.9    -2.23       .6      5.6  .023873
GW   283   10    -2.23       .6      5.6    -2.23       .6      5.3  .023873
GW   284   10    -2.23       .6      5.3    -2.23       .6      5.0  .023873
GW   285   10    -2.23       .6      5.0    -2.23       .6      4.7  .023873
GW   286   10    -2.23       .6      4.7    -2.23       .6      4.4  .023873
GW   287   10    -2.23       .6      4.4    -2.23       .6      4.1  .023873
GW   288   10    -2.23       .6      4.1    -2.23       .6      3.8  .023873
GW   289   10    -2.23       .6      3.8    -2.23       .6      3.5  .023873
GW   290   10    -2.23       .9      6.5    -2.23       .9      6.2  .023873
GW   291   10    -2.23       .9      6.2    -2.23       .9      5.9  .023873
GW   292   10    -2.23       .9      5.9    -2.23       .9      5.6  .023873
GW   293   10    -2.23       .9      5.6    -2.23       .9      5.3  .023873
GW   294   10    -2.23       .9      5.3    -2.23       .9      5.0  .023873
GW   295   10    -2.23       .9      5.0    -2.23       .9      4.7  .023873
GW   296   10    -2.23       .9      4.7    -2.23       .9      4.4  .023873
GW   297   10    -2.23       .9      4.4    -2.23       .9      4.1  .023873
GW   298   10    -2.23       .9      4.1    -2.23       .9      3.8  .023873
GW   299   10    -2.23       .9      3.8    -2.23       .9      3.5  .023873
GW   300   10    -2.23      1.2      6.5    -2.23      1.2      6.2  .023873
GW   301   10    -2.23      1.2      6.2    -2.23      1.2      5.9  .023873
GW   302   10    -2.23      1.2      5.9    -2.23      1.2      5.6  .023873
GW   303   10    -2.23      1.2      5.6    -2.23      1.2      5.3  .023873
GW   304   10    -2.23      1.2      5.3    -2.23      1.2      5.0  .023873
GW   305   10    -2.23      1.2      5.0    -2.23      1.2      4.7  .023873
GW   306   10    -2.23      1.2      4.7    -2.23      1.2      4.4  .023873
GW   307   10    -2.23      1.2      4.4    -2.23      1.2      4.1  .023873
GW   308   10    -2.23      1.2      4.1    -2.23      1.2      3.8  .023873
GW   309   10    -2.23      1.2      3.8    -2.23      1.2      3.5  .023873
GW   310   10    -2.23      1.5      6.5    -2.23      1.5      6.2  .023873
GW   311   10    -2.23      1.5      6.2    -2.23      1.5      5.9  .023873
GW   312   10    -2.23      1.5      5.9    -2.23      1.5      5.6  .023873
GW   313   10    -2.23      1.5      5.6    -2.23      1.5      5.3  .023873
GW   314   10    -2.23      1.5      5.3    -2.23      1.5      5.0  .023873
GW   315   10    -2.23      1.5      5.0    -2.23      1.5      4.7  .023873
GW   316   10    -2.23      1.5      4.7    -2.23      1.5      4.4  .023873
GW   317   10    -2.23      1.5      4.4    -2.23      1.5      4.1  .023873
GW   318   10    -2.23      1.5      4.1    -2.23      1.5      3.8  .023873
GW   319   10    -2.23      1.5      3.8    -2.23      1.5      3.5  .023873
GE 0
