CM
CM
CM
CE
SY BASE=8.0
SY h=0.618411
SY w=0.281711
SY o=0.0
GW	1	9	-w/2	0.	BASE+o	w/2	0.0	BASE+o	.005
GW	2	9	-w/2	0	base-h/2	-w/2	0	base+o	.005
GW	3	9	-w/2	0.	base+o	-w/2	0.0	base+h/2	.005
GW	4	9	w/2	0.	base-h/2	w/2	0.0	base+o	.005
GW	5	9	w/2	0.	base+o	w/2	0.0	base+h/2	.005
GE -1
GN 2 0 0 0 11 0.01
EX  0    1    5    0  1.
FR  0    5    0    0  144.      1.0
EN
