CM
CM Y is North
CM forw: 87, 60 ; back: 87, 240
CE
SY FR=144.2
SY BASE=8
SY Xc=-1.2
SY Yc=0.0
SY Lam=300/FR
SY POL=1.0
SY P=POL*Lam
SY A=1.9
SY HT=0.5*P/(1+1/A)
SY WD=HT/A
SY Phi=0
'SY Cap=2.816735
'

GW	21	20	-WD/2	0.	0	-WD/2	0.0	HT	.005
GW	31	20	WD/2	0.	0	WD/2	0.0	HT	.005
GW	24	3	-WD/2	0.	HT	WD/2	0.0	HT	.005

GX	1	001

GW	6	3	-WD/2	0	0	WD/2	0	0	.005

GM	0	0	0	0	-Phi	Xc	Yc	BASE+HT
GM	0	0	0	0	-32 	0	0	0

GE -1
GN 2 0 0 0 11 0.01
EX	0	6	2	0	1.
'LD	0	6	1	1	0	0	Cap/1e12
FR,0,1,0,0,144.2
PQ -1
PT -1
RP,0,31,121,1003,-90,0,3,3
