CM No comments specified
CE
GW 1 19 0.475 0.000 0.000 -0.475 0.000 0.000 0.003716909905858948
GW 2 11 0.585 0.163 0.000 0.013 0.163 0.000 0.006400497196051418
GW 999 1 0.013 0.163 0.000 -0.039 0.163 0.000 0.006400497196051418
GW 2 11 -0.039 0.163 0.000 -0.585 0.163 0.000 0.006400497196051418
GW 3 17 0.427 0.373 0.000 -0.427 0.373 0.000 0.004696150294563292
GM 0 0 0 0 0 0 0 8.000
GE 1
GN 2 0 0 0 11.000 0.010 
EK
LD 5 0 0 0 58000000.000000 
EX 0 999 1 0 1 0
FR 0 1 0 0 144.200 0
RP 0 1 1 1000 87.00 90.00 0 0
EN