CM No comments specified
CE
GW 1 1 0.107 0.000 0.256 0.106 0.018 0.256 0.0025363625469766744
GW 1 1 0.106 0.018 0.256 0.101 0.036 0.256 0.0025363625469766744
GW 1 1 0.101 0.036 0.256 0.093 0.053 0.256 0.0025363625469766744
GW 1 1 0.093 0.053 0.256 0.083 0.068 0.256 0.0025363625469766744
GW 1 1 0.083 0.068 0.256 0.070 0.081 0.256 0.0025363625469766744
GW 1 1 0.070 0.081 0.256 0.055 0.092 0.256 0.0025363625469766744
GW 1 1 0.055 0.092 0.256 0.039 0.100 0.256 0.0025363625469766744
GW 1 1 0.039 0.100 0.256 0.021 0.105 0.256 0.0025363625469766744
GW 1 1 0.021 0.105 0.256 0.003 0.107 0.256 0.0025363625469766744
GW 1 1 0.003 0.107 0.256 -0.016 0.106 0.256 0.0025363625469766744
GW 1 1 -0.016 0.106 0.256 -0.034 0.102 0.256 0.0025363625469766744
GW 1 1 -0.034 0.102 0.256 -0.051 0.095 0.256 0.0025363625469766744
GW 1 1 -0.051 0.095 0.256 -0.066 0.084 0.256 0.0025363625469766744
GW 1 1 -0.066 0.084 0.256 -0.080 0.072 0.256 0.0025363625469766744
GW 1 1 -0.080 0.072 0.256 -0.091 0.057 0.256 0.0025363625469766744
GW 1 1 -0.091 0.057 0.256 -0.099 0.041 0.256 0.0025363625469766744
GW 1 1 -0.099 0.041 0.256 -0.105 0.023 0.256 0.0025363625469766744
GW 1 1 -0.105 0.023 0.256 -0.107 0.005 0.256 0.0025363625469766744
GW 1 1 -0.107 0.005 0.256 -0.106 -0.013 0.256 0.0025363625469766744
GW 1 1 -0.106 -0.013 0.256 -0.103 -0.031 0.256 0.0025363625469766744
GW 1 1 -0.103 -0.031 0.256 -0.096 -0.049 0.256 0.0025363625469766744
GW 1 1 -0.096 -0.049 0.256 -0.086 -0.064 0.256 0.0025363625469766744
GW 1 1 -0.086 -0.064 0.256 -0.074 -0.078 0.256 0.0025363625469766744
GW 1 1 -0.074 -0.078 0.256 -0.059 -0.089 0.256 0.0025363625469766744
GW 1 1 -0.059 -0.089 0.256 -0.043 -0.098 0.256 0.0025363625469766744
GW 1 1 -0.043 -0.098 0.256 -0.026 -0.104 0.256 0.0025363625469766744
GW 1 1 -0.026 -0.104 0.256 -0.008 -0.107 0.256 0.0025363625469766744
GW 1 1 -0.008 -0.107 0.256 0.011 -0.107 0.256 0.0025363625469766744
GW 1 1 0.011 -0.107 0.256 0.029 -0.103 0.256 0.0025363625469766744
GW 1 1 0.029 -0.103 0.256 0.046 -0.097 0.256 0.0025363625469766744
GW 1 1 0.046 -0.097 0.256 0.062 -0.087 0.256 0.0025363625469766744
GW 1 1 0.062 -0.087 0.256 0.076 -0.076 0.256 0.0025363625469766744
GW 1 1 0.076 -0.076 0.256 0.088 -0.061 0.256 0.0025363625469766744
GW 1 1 0.088 -0.061 0.256 0.097 -0.045 0.256 0.0025363625469766744
GW 1 1 0.097 -0.045 0.256 0.104 -0.028 0.256 0.0025363625469766744
GW 999 1 0.104 -0.028 0.256 0.107 -0.010 0.256 0.0025363625469766744
GW 2 1 0.107 0.000 0.000 0.106 0.018 0.000 0.0025363625469766744
GW 2 1 0.106 0.018 0.000 0.101 0.036 0.000 0.0025363625469766744
GW 2 1 0.101 0.036 0.000 0.093 0.053 0.000 0.0025363625469766744
GW 2 1 0.093 0.053 0.000 0.083 0.068 0.000 0.0025363625469766744
GW 2 1 0.083 0.068 0.000 0.070 0.081 0.000 0.0025363625469766744
GW 2 1 0.070 0.081 0.000 0.055 0.092 0.000 0.0025363625469766744
GW 2 1 0.055 0.092 0.000 0.039 0.100 0.000 0.0025363625469766744
GW 2 1 0.039 0.100 0.000 0.021 0.105 0.000 0.0025363625469766744
GW 2 1 0.021 0.105 0.000 0.003 0.107 0.000 0.0025363625469766744
GW 2 1 0.003 0.107 0.000 -0.016 0.106 0.000 0.0025363625469766744
GW 2 1 -0.016 0.106 0.000 -0.034 0.102 0.000 0.0025363625469766744
GW 2 1 -0.034 0.102 0.000 -0.051 0.095 0.000 0.0025363625469766744
GW 2 1 -0.051 0.095 0.000 -0.066 0.084 0.000 0.0025363625469766744
GW 2 1 -0.066 0.084 0.000 -0.080 0.072 0.000 0.0025363625469766744
GW 2 1 -0.080 0.072 0.000 -0.091 0.057 0.000 0.0025363625469766744
GW 2 1 -0.091 0.057 0.000 -0.099 0.041 0.000 0.0025363625469766744
GW 2 1 -0.099 0.041 0.000 -0.105 0.023 0.000 0.0025363625469766744
GW 2 1 -0.105 0.023 0.000 -0.107 0.005 0.000 0.0025363625469766744
GW 2 1 -0.107 0.005 0.000 -0.106 -0.013 0.000 0.0025363625469766744
GW 2 1 -0.106 -0.013 0.000 -0.103 -0.031 0.000 0.0025363625469766744
GW 2 1 -0.103 -0.031 0.000 -0.096 -0.049 0.000 0.0025363625469766744
GW 2 1 -0.096 -0.049 0.000 -0.086 -0.064 0.000 0.0025363625469766744
GW 2 1 -0.086 -0.064 0.000 -0.074 -0.078 0.000 0.0025363625469766744
GW 2 1 -0.074 -0.078 0.000 -0.059 -0.089 0.000 0.0025363625469766744
GW 2 1 -0.059 -0.089 0.000 -0.043 -0.098 0.000 0.0025363625469766744
GW 2 1 -0.043 -0.098 0.000 -0.026 -0.104 0.000 0.0025363625469766744
GW 2 1 -0.026 -0.104 0.000 -0.008 -0.107 0.000 0.0025363625469766744
GW 2 1 -0.008 -0.107 0.000 0.011 -0.107 0.000 0.0025363625469766744
GW 2 1 0.011 -0.107 0.000 0.029 -0.103 0.000 0.0025363625469766744
GW 2 1 0.029 -0.103 0.000 0.046 -0.097 0.000 0.0025363625469766744
GW 2 1 0.046 -0.097 0.000 0.062 -0.087 0.000 0.0025363625469766744
GW 2 1 0.062 -0.087 0.000 0.076 -0.076 0.000 0.0025363625469766744
GW 2 1 0.076 -0.076 0.000 0.088 -0.061 0.000 0.0025363625469766744
GW 2 1 0.088 -0.061 0.000 0.097 -0.045 0.000 0.0025363625469766744
GW 2 1 0.097 -0.045 0.000 0.104 -0.028 0.000 0.0025363625469766744
GW 2 1 0.104 -0.028 0.000 0.107 -0.010 0.000 0.0025363625469766744
GW 3 5 0.107 0.000 0.000 0.107 0.000 0.256 0.0025363625469766744
GW 4 5 0.107 -0.010 0.000 0.107 -0.010 0.256 0.0025363625469766744
GM 0 0 0 0 0 0 0 8.000
GE -1
GN 2 0 0 0 11.000 0.010 
EK
LD 5 0 0 0 58000000.000000 
EX 0 999 1 0 1 0
FR 0 1 0 0 144.200 0
RP 0 1 1 1000 85.00 90.00 0 0
EN