CM No comments specified
CE
GW 1 1 0.101 0.000 0.178 0.100 0.017 0.178 0.002864456520377178
GW 1 1 0.100 0.017 0.178 0.095 0.034 0.178 0.002864456520377178
GW 1 1 0.095 0.034 0.178 0.088 0.050 0.178 0.002864456520377178
GW 1 1 0.088 0.050 0.178 0.078 0.064 0.178 0.002864456520377178
GW 1 1 0.078 0.064 0.178 0.066 0.077 0.178 0.002864456520377178
GW 1 1 0.066 0.077 0.178 0.052 0.087 0.178 0.002864456520377178
GW 1 1 0.052 0.087 0.178 0.036 0.095 0.178 0.002864456520377178
GW 1 1 0.036 0.095 0.178 0.020 0.099 0.178 0.002864456520377178
GW 1 1 0.020 0.099 0.178 0.002 0.101 0.178 0.002864456520377178
GW 1 1 0.002 0.101 0.178 -0.015 0.100 0.178 0.002864456520377178
GW 1 1 -0.015 0.100 0.178 -0.032 0.096 0.178 0.002864456520377178
GW 1 1 -0.032 0.096 0.178 -0.048 0.089 0.178 0.002864456520377178
GW 1 1 -0.048 0.089 0.178 -0.063 0.080 0.178 0.002864456520377178
GW 1 1 -0.063 0.080 0.178 -0.075 0.068 0.178 0.002864456520377178
GW 1 1 -0.075 0.068 0.178 -0.086 0.054 0.178 0.002864456520377178
GW 1 1 -0.086 0.054 0.178 -0.094 0.038 0.178 0.002864456520377178
GW 1 1 -0.094 0.038 0.178 -0.099 0.022 0.178 0.002864456520377178
GW 1 1 -0.099 0.022 0.178 -0.101 0.005 0.178 0.002864456520377178
GW 1 1 -0.101 0.005 0.178 -0.100 -0.013 0.178 0.002864456520377178
GW 1 1 -0.100 -0.013 0.178 -0.097 -0.030 0.178 0.002864456520377178
GW 1 1 -0.097 -0.030 0.178 -0.090 -0.046 0.178 0.002864456520377178
GW 1 1 -0.090 -0.046 0.178 -0.081 -0.061 0.178 0.002864456520377178
GW 1 1 -0.081 -0.061 0.178 -0.069 -0.074 0.178 0.002864456520377178
GW 1 1 -0.069 -0.074 0.178 -0.056 -0.085 0.178 0.002864456520377178
GW 1 1 -0.056 -0.085 0.178 -0.040 -0.093 0.178 0.002864456520377178
GW 1 1 -0.040 -0.093 0.178 -0.024 -0.098 0.178 0.002864456520377178
GW 1 1 -0.024 -0.098 0.178 -0.007 -0.101 0.178 0.002864456520377178
GW 1 1 -0.007 -0.101 0.178 0.011 -0.101 0.178 0.002864456520377178
GW 1 1 0.011 -0.101 0.178 0.028 -0.097 0.178 0.002864456520377178
GW 1 1 0.028 -0.097 0.178 0.044 -0.091 0.178 0.002864456520377178
GW 1 1 0.044 -0.091 0.178 0.059 -0.082 0.178 0.002864456520377178
GW 1 1 0.059 -0.082 0.178 0.072 -0.071 0.178 0.002864456520377178
GW 1 1 0.072 -0.071 0.178 0.083 -0.058 0.178 0.002864456520377178
GW 1 1 0.083 -0.058 0.178 0.092 -0.043 0.178 0.002864456520377178
GW 1 1 0.092 -0.043 0.178 0.098 -0.026 0.178 0.002864456520377178
GW 999 1 0.098 -0.026 0.178 0.101 -0.009 0.178 0.002864456520377178
GW 2 1 0.101 0.000 0.000 0.100 0.017 0.000 0.002864456520377178
GW 2 1 0.100 0.017 0.000 0.095 0.034 0.000 0.002864456520377178
GW 2 1 0.095 0.034 0.000 0.088 0.050 0.000 0.002864456520377178
GW 2 1 0.088 0.050 0.000 0.078 0.064 0.000 0.002864456520377178
GW 2 1 0.078 0.064 0.000 0.066 0.077 0.000 0.002864456520377178
GW 2 1 0.066 0.077 0.000 0.052 0.087 0.000 0.002864456520377178
GW 2 1 0.052 0.087 0.000 0.036 0.095 0.000 0.002864456520377178
GW 2 1 0.036 0.095 0.000 0.020 0.099 0.000 0.002864456520377178
GW 2 1 0.020 0.099 0.000 0.002 0.101 0.000 0.002864456520377178
GW 2 1 0.002 0.101 0.000 -0.015 0.100 0.000 0.002864456520377178
GW 2 1 -0.015 0.100 0.000 -0.032 0.096 0.000 0.002864456520377178
GW 2 1 -0.032 0.096 0.000 -0.048 0.089 0.000 0.002864456520377178
GW 2 1 -0.048 0.089 0.000 -0.063 0.080 0.000 0.002864456520377178
GW 2 1 -0.063 0.080 0.000 -0.075 0.068 0.000 0.002864456520377178
GW 2 1 -0.075 0.068 0.000 -0.086 0.054 0.000 0.002864456520377178
GW 2 1 -0.086 0.054 0.000 -0.094 0.038 0.000 0.002864456520377178
GW 2 1 -0.094 0.038 0.000 -0.099 0.022 0.000 0.002864456520377178
GW 2 1 -0.099 0.022 0.000 -0.101 0.005 0.000 0.002864456520377178
GW 2 1 -0.101 0.005 0.000 -0.100 -0.013 0.000 0.002864456520377178
GW 2 1 -0.100 -0.013 0.000 -0.097 -0.030 0.000 0.002864456520377178
GW 2 1 -0.097 -0.030 0.000 -0.090 -0.046 0.000 0.002864456520377178
GW 2 1 -0.090 -0.046 0.000 -0.081 -0.061 0.000 0.002864456520377178
GW 2 1 -0.081 -0.061 0.000 -0.069 -0.074 0.000 0.002864456520377178
GW 2 1 -0.069 -0.074 0.000 -0.056 -0.085 0.000 0.002864456520377178
GW 2 1 -0.056 -0.085 0.000 -0.040 -0.093 0.000 0.002864456520377178
GW 2 1 -0.040 -0.093 0.000 -0.024 -0.098 0.000 0.002864456520377178
GW 2 1 -0.024 -0.098 0.000 -0.007 -0.101 0.000 0.002864456520377178
GW 2 1 -0.007 -0.101 0.000 0.011 -0.101 0.000 0.002864456520377178
GW 2 1 0.011 -0.101 0.000 0.028 -0.097 0.000 0.002864456520377178
GW 2 1 0.028 -0.097 0.000 0.044 -0.091 0.000 0.002864456520377178
GW 2 1 0.044 -0.091 0.000 0.059 -0.082 0.000 0.002864456520377178
GW 2 1 0.059 -0.082 0.000 0.072 -0.071 0.000 0.002864456520377178
GW 2 1 0.072 -0.071 0.000 0.083 -0.058 0.000 0.002864456520377178
GW 2 1 0.083 -0.058 0.000 0.092 -0.043 0.000 0.002864456520377178
GW 2 1 0.092 -0.043 0.000 0.098 -0.026 0.000 0.002864456520377178
GW 2 1 0.098 -0.026 0.000 0.101 -0.009 0.000 0.002864456520377178
GW 3 4 0.101 0.000 0.000 0.101 0.000 0.178 0.002864456520377178
GW 4 4 0.101 -0.009 0.000 0.101 -0.009 0.178 0.002864456520377178
GM 0 0 0 0 0 0 0 8.000
GE 1
GN 2 0 0 0 11.000 0.010 
EK
LD 5 0 0 0 58000000.000000 
EX 0 999 1 0 1 0
FR 0 1 0 0 144.200 0
RP 0 1 1 1000 85.00 90.00 0 0
EN