CM No comments specified
CE
GW 1 1 0.107 0.000 0.184 0.105 0.018 0.184 0.0023058400003192554
GW 1 1 0.105 0.018 0.184 0.101 0.036 0.184 0.0023058400003192554
GW 1 1 0.101 0.036 0.184 0.093 0.053 0.184 0.0023058400003192554
GW 1 1 0.093 0.053 0.184 0.083 0.068 0.184 0.0023058400003192554
GW 1 1 0.083 0.068 0.184 0.070 0.081 0.184 0.0023058400003192554
GW 1 1 0.070 0.081 0.184 0.055 0.092 0.184 0.0023058400003192554
GW 1 1 0.055 0.092 0.184 0.039 0.100 0.184 0.0023058400003192554
GW 1 1 0.039 0.100 0.184 0.021 0.105 0.184 0.0023058400003192554
GW 1 1 0.021 0.105 0.184 0.003 0.107 0.184 0.0023058400003192554
GW 1 1 0.003 0.107 0.184 -0.016 0.106 0.184 0.0023058400003192554
GW 1 1 -0.016 0.106 0.184 -0.033 0.102 0.184 0.0023058400003192554
GW 1 1 -0.033 0.102 0.184 -0.050 0.095 0.184 0.0023058400003192554
GW 1 1 -0.050 0.095 0.184 -0.066 0.085 0.184 0.0023058400003192554
GW 1 1 -0.066 0.085 0.184 -0.079 0.072 0.184 0.0023058400003192554
GW 1 1 -0.079 0.072 0.184 -0.090 0.058 0.184 0.0023058400003192554
GW 1 1 -0.090 0.058 0.184 -0.099 0.041 0.184 0.0023058400003192554
GW 1 1 -0.099 0.041 0.184 -0.104 0.024 0.184 0.0023058400003192554
GW 1 1 -0.104 0.024 0.184 -0.107 0.006 0.184 0.0023058400003192554
GW 1 1 -0.107 0.006 0.184 -0.106 -0.013 0.184 0.0023058400003192554
GW 1 1 -0.106 -0.013 0.184 -0.103 -0.031 0.184 0.0023058400003192554
GW 1 1 -0.103 -0.031 0.184 -0.096 -0.048 0.184 0.0023058400003192554
GW 1 1 -0.096 -0.048 0.184 -0.086 -0.063 0.184 0.0023058400003192554
GW 1 1 -0.086 -0.063 0.184 -0.074 -0.077 0.184 0.0023058400003192554
GW 1 1 -0.074 -0.077 0.184 -0.060 -0.089 0.184 0.0023058400003192554
GW 1 1 -0.060 -0.089 0.184 -0.044 -0.098 0.184 0.0023058400003192554
GW 1 1 -0.044 -0.098 0.184 -0.026 -0.104 0.184 0.0023058400003192554
GW 1 1 -0.026 -0.104 0.184 -0.008 -0.107 0.184 0.0023058400003192554
GW 1 1 -0.008 -0.107 0.184 0.010 -0.107 0.184 0.0023058400003192554
GW 1 1 0.010 -0.107 0.184 0.028 -0.103 0.184 0.0023058400003192554
GW 1 1 0.028 -0.103 0.184 0.045 -0.097 0.184 0.0023058400003192554
GW 1 1 0.045 -0.097 0.184 0.061 -0.088 0.184 0.0023058400003192554
GW 1 1 0.061 -0.088 0.184 0.075 -0.076 0.184 0.0023058400003192554
GW 1 1 0.075 -0.076 0.184 0.087 -0.062 0.184 0.0023058400003192554
GW 1 1 0.087 -0.062 0.184 0.096 -0.046 0.184 0.0023058400003192554
GW 1 1 0.096 -0.046 0.184 0.103 -0.029 0.184 0.0023058400003192554
GW 999 1 0.103 -0.029 0.184 0.106 -0.011 0.184 0.0023058400003192554
GW 2 1 0.107 0.000 0.000 0.105 0.018 0.000 0.0023058400003192554
GW 2 1 0.105 0.018 0.000 0.101 0.036 0.000 0.0023058400003192554
GW 2 1 0.101 0.036 0.000 0.093 0.053 0.000 0.0023058400003192554
GW 2 1 0.093 0.053 0.000 0.083 0.068 0.000 0.0023058400003192554
GW 2 1 0.083 0.068 0.000 0.070 0.081 0.000 0.0023058400003192554
GW 2 1 0.070 0.081 0.000 0.055 0.092 0.000 0.0023058400003192554
GW 2 1 0.055 0.092 0.000 0.039 0.100 0.000 0.0023058400003192554
GW 2 1 0.039 0.100 0.000 0.021 0.105 0.000 0.0023058400003192554
GW 2 1 0.021 0.105 0.000 0.003 0.107 0.000 0.0023058400003192554
GW 2 1 0.003 0.107 0.000 -0.016 0.106 0.000 0.0023058400003192554
GW 2 1 -0.016 0.106 0.000 -0.033 0.102 0.000 0.0023058400003192554
GW 2 1 -0.033 0.102 0.000 -0.050 0.095 0.000 0.0023058400003192554
GW 2 1 -0.050 0.095 0.000 -0.066 0.085 0.000 0.0023058400003192554
GW 2 1 -0.066 0.085 0.000 -0.079 0.072 0.000 0.0023058400003192554
GW 2 1 -0.079 0.072 0.000 -0.090 0.058 0.000 0.0023058400003192554
GW 2 1 -0.090 0.058 0.000 -0.099 0.041 0.000 0.0023058400003192554
GW 2 1 -0.099 0.041 0.000 -0.104 0.024 0.000 0.0023058400003192554
GW 2 1 -0.104 0.024 0.000 -0.107 0.006 0.000 0.0023058400003192554
GW 2 1 -0.107 0.006 0.000 -0.106 -0.013 0.000 0.0023058400003192554
GW 2 1 -0.106 -0.013 0.000 -0.103 -0.031 0.000 0.0023058400003192554
GW 2 1 -0.103 -0.031 0.000 -0.096 -0.048 0.000 0.0023058400003192554
GW 2 1 -0.096 -0.048 0.000 -0.086 -0.063 0.000 0.0023058400003192554
GW 2 1 -0.086 -0.063 0.000 -0.074 -0.077 0.000 0.0023058400003192554
GW 2 1 -0.074 -0.077 0.000 -0.060 -0.089 0.000 0.0023058400003192554
GW 2 1 -0.060 -0.089 0.000 -0.044 -0.098 0.000 0.0023058400003192554
GW 2 1 -0.044 -0.098 0.000 -0.026 -0.104 0.000 0.0023058400003192554
GW 2 1 -0.026 -0.104 0.000 -0.008 -0.107 0.000 0.0023058400003192554
GW 2 1 -0.008 -0.107 0.000 0.010 -0.107 0.000 0.0023058400003192554
GW 2 1 0.010 -0.107 0.000 0.028 -0.103 0.000 0.0023058400003192554
GW 2 1 0.028 -0.103 0.000 0.045 -0.097 0.000 0.0023058400003192554
GW 2 1 0.045 -0.097 0.000 0.061 -0.088 0.000 0.0023058400003192554
GW 2 1 0.061 -0.088 0.000 0.075 -0.076 0.000 0.0023058400003192554
GW 2 1 0.075 -0.076 0.000 0.087 -0.062 0.000 0.0023058400003192554
GW 2 1 0.087 -0.062 0.000 0.096 -0.046 0.000 0.0023058400003192554
GW 2 1 0.096 -0.046 0.000 0.103 -0.029 0.000 0.0023058400003192554
GW 2 1 0.103 -0.029 0.000 0.106 -0.011 0.000 0.0023058400003192554
GW 3 4 0.107 0.000 0.000 0.107 0.000 0.184 0.0023058400003192554
GW 4 4 0.106 -0.011 0.000 0.106 -0.011 0.184 0.0023058400003192554
GM 0 0 0 0 0 0 0 8.000
GE -1
GN 2 0 0 0 11.000 0.010 
EK
LD 5 0 0 0 58000000.000000 
EX 0 999 1 0 1 0
FR 0 1 0 0 144.200 0
RP 0 1 1 1000 85.00 90.00 0 0
EN