CM No comments specified
CE
GW 1 1 0.085 0.000 0.212 0.084 0.014 0.212 0.002134957179634357
GW 1 1 0.084 0.014 0.212 0.080 0.029 0.212 0.002134957179634357
GW 1 1 0.080 0.029 0.212 0.074 0.042 0.212 0.002134957179634357
GW 1 1 0.074 0.042 0.212 0.066 0.054 0.212 0.002134957179634357
GW 1 1 0.066 0.054 0.212 0.055 0.064 0.212 0.002134957179634357
GW 1 1 0.055 0.064 0.212 0.044 0.073 0.212 0.002134957179634357
GW 1 1 0.044 0.073 0.212 0.031 0.079 0.212 0.002134957179634357
GW 1 1 0.031 0.079 0.212 0.017 0.083 0.212 0.002134957179634357
GW 1 1 0.017 0.083 0.212 0.002 0.085 0.212 0.002134957179634357
GW 1 1 0.002 0.085 0.212 -0.012 0.084 0.212 0.002134957179634357
GW 1 1 -0.012 0.084 0.212 -0.026 0.081 0.212 0.002134957179634357
GW 1 1 -0.026 0.081 0.212 -0.040 0.075 0.212 0.002134957179634357
GW 1 1 -0.040 0.075 0.212 -0.052 0.067 0.212 0.002134957179634357
GW 1 1 -0.052 0.067 0.212 -0.063 0.057 0.212 0.002134957179634357
GW 1 1 -0.063 0.057 0.212 -0.072 0.046 0.212 0.002134957179634357
GW 1 1 -0.072 0.046 0.212 -0.078 0.033 0.212 0.002134957179634357
GW 1 1 -0.078 0.033 0.212 -0.083 0.019 0.212 0.002134957179634357
GW 1 1 -0.083 0.019 0.212 -0.085 0.004 0.212 0.002134957179634357
GW 1 1 -0.085 0.004 0.212 -0.084 -0.010 0.212 0.002134957179634357
GW 1 1 -0.084 -0.010 0.212 -0.081 -0.024 0.212 0.002134957179634357
GW 1 1 -0.081 -0.024 0.212 -0.076 -0.038 0.212 0.002134957179634357
GW 1 1 -0.076 -0.038 0.212 -0.068 -0.050 0.212 0.002134957179634357
GW 1 1 -0.068 -0.050 0.212 -0.059 -0.061 0.212 0.002134957179634357
GW 1 1 -0.059 -0.061 0.212 -0.047 -0.070 0.212 0.002134957179634357
GW 1 1 -0.047 -0.070 0.212 -0.035 -0.077 0.212 0.002134957179634357
GW 1 1 -0.035 -0.077 0.212 -0.021 -0.082 0.212 0.002134957179634357
GW 1 1 -0.021 -0.082 0.212 -0.007 -0.085 0.212 0.002134957179634357
GW 1 1 -0.007 -0.085 0.212 0.008 -0.084 0.212 0.002134957179634357
GW 1 1 0.008 -0.084 0.212 0.022 -0.082 0.212 0.002134957179634357
GW 1 1 0.022 -0.082 0.212 0.036 -0.077 0.212 0.002134957179634357
GW 1 1 0.036 -0.077 0.212 0.048 -0.070 0.212 0.002134957179634357
GW 1 1 0.048 -0.070 0.212 0.060 -0.060 0.212 0.002134957179634357
GW 1 1 0.060 -0.060 0.212 0.069 -0.049 0.212 0.002134957179634357
GW 1 1 0.069 -0.049 0.212 0.076 -0.037 0.212 0.002134957179634357
GW 1 1 0.076 -0.037 0.212 0.082 -0.023 0.212 0.002134957179634357
GW 999 1 0.082 -0.023 0.212 0.084 -0.009 0.212 0.002134957179634357
GW 2 1 0.085 0.000 0.000 0.084 0.014 0.000 0.002134957179634357
GW 2 1 0.084 0.014 0.000 0.080 0.029 0.000 0.002134957179634357
GW 2 1 0.080 0.029 0.000 0.074 0.042 0.000 0.002134957179634357
GW 2 1 0.074 0.042 0.000 0.066 0.054 0.000 0.002134957179634357
GW 2 1 0.066 0.054 0.000 0.055 0.064 0.000 0.002134957179634357
GW 2 1 0.055 0.064 0.000 0.044 0.073 0.000 0.002134957179634357
GW 2 1 0.044 0.073 0.000 0.031 0.079 0.000 0.002134957179634357
GW 2 1 0.031 0.079 0.000 0.017 0.083 0.000 0.002134957179634357
GW 2 1 0.017 0.083 0.000 0.002 0.085 0.000 0.002134957179634357
GW 2 1 0.002 0.085 0.000 -0.012 0.084 0.000 0.002134957179634357
GW 2 1 -0.012 0.084 0.000 -0.026 0.081 0.000 0.002134957179634357
GW 2 1 -0.026 0.081 0.000 -0.040 0.075 0.000 0.002134957179634357
GW 2 1 -0.040 0.075 0.000 -0.052 0.067 0.000 0.002134957179634357
GW 2 1 -0.052 0.067 0.000 -0.063 0.057 0.000 0.002134957179634357
GW 2 1 -0.063 0.057 0.000 -0.072 0.046 0.000 0.002134957179634357
GW 2 1 -0.072 0.046 0.000 -0.078 0.033 0.000 0.002134957179634357
GW 2 1 -0.078 0.033 0.000 -0.083 0.019 0.000 0.002134957179634357
GW 2 1 -0.083 0.019 0.000 -0.085 0.004 0.000 0.002134957179634357
GW 2 1 -0.085 0.004 0.000 -0.084 -0.010 0.000 0.002134957179634357
GW 2 1 -0.084 -0.010 0.000 -0.081 -0.024 0.000 0.002134957179634357
GW 2 1 -0.081 -0.024 0.000 -0.076 -0.038 0.000 0.002134957179634357
GW 2 1 -0.076 -0.038 0.000 -0.068 -0.050 0.000 0.002134957179634357
GW 2 1 -0.068 -0.050 0.000 -0.059 -0.061 0.000 0.002134957179634357
GW 2 1 -0.059 -0.061 0.000 -0.047 -0.070 0.000 0.002134957179634357
GW 2 1 -0.047 -0.070 0.000 -0.035 -0.077 0.000 0.002134957179634357
GW 2 1 -0.035 -0.077 0.000 -0.021 -0.082 0.000 0.002134957179634357
GW 2 1 -0.021 -0.082 0.000 -0.007 -0.085 0.000 0.002134957179634357
GW 2 1 -0.007 -0.085 0.000 0.008 -0.084 0.000 0.002134957179634357
GW 2 1 0.008 -0.084 0.000 0.022 -0.082 0.000 0.002134957179634357
GW 2 1 0.022 -0.082 0.000 0.036 -0.077 0.000 0.002134957179634357
GW 2 1 0.036 -0.077 0.000 0.048 -0.070 0.000 0.002134957179634357
GW 2 1 0.048 -0.070 0.000 0.060 -0.060 0.000 0.002134957179634357
GW 2 1 0.060 -0.060 0.000 0.069 -0.049 0.000 0.002134957179634357
GW 2 1 0.069 -0.049 0.000 0.076 -0.037 0.000 0.002134957179634357
GW 2 1 0.076 -0.037 0.000 0.082 -0.023 0.000 0.002134957179634357
GW 2 1 0.082 -0.023 0.000 0.084 -0.009 0.000 0.002134957179634357
GW 3 5 0.085 0.000 0.000 0.085 0.000 0.212 0.002134957179634357
GW 4 5 0.084 -0.009 0.000 0.084 -0.009 0.212 0.002134957179634357
GM 0 0 0 0 0 0 0 8.000
GE 1
GN 2 0 0 0 11.000 0.010 
EK
LD 5 0 0 0 58000000.000000 
EX 0 999 1 0 1 0
FR 0 1 0 0 144.200 0
RP 0 1 1 1000 85.00 90.00 0 0
EN