CM No comments specified
CE
GW 1 1 0.102 0.000 0.218 0.100 0.017 0.218 0.0026091487463331758
GW 1 1 0.100 0.017 0.218 0.096 0.034 0.218 0.0026091487463331758
GW 1 1 0.096 0.034 0.218 0.089 0.050 0.218 0.0026091487463331758
GW 1 1 0.089 0.050 0.218 0.079 0.065 0.218 0.0026091487463331758
GW 1 1 0.079 0.065 0.218 0.067 0.077 0.218 0.0026091487463331758
GW 1 1 0.067 0.077 0.218 0.052 0.087 0.218 0.0026091487463331758
GW 1 1 0.052 0.087 0.218 0.037 0.095 0.218 0.0026091487463331758
GW 1 1 0.037 0.095 0.218 0.020 0.100 0.218 0.0026091487463331758
GW 1 1 0.020 0.100 0.218 0.002 0.102 0.218 0.0026091487463331758
GW 1 1 0.002 0.102 0.218 -0.015 0.101 0.218 0.0026091487463331758
GW 1 1 -0.015 0.101 0.218 -0.032 0.097 0.218 0.0026091487463331758
GW 1 1 -0.032 0.097 0.218 -0.048 0.090 0.218 0.0026091487463331758
GW 1 1 -0.048 0.090 0.218 -0.063 0.080 0.218 0.0026091487463331758
GW 1 1 -0.063 0.080 0.218 -0.076 0.068 0.218 0.0026091487463331758
GW 1 1 -0.076 0.068 0.218 -0.086 0.054 0.218 0.0026091487463331758
GW 1 1 -0.086 0.054 0.218 -0.094 0.039 0.218 0.0026091487463331758
GW 1 1 -0.094 0.039 0.218 -0.100 0.022 0.218 0.0026091487463331758
GW 1 1 -0.100 0.022 0.218 -0.102 0.005 0.218 0.0026091487463331758
GW 1 1 -0.102 0.005 0.218 -0.101 -0.013 0.218 0.0026091487463331758
GW 1 1 -0.101 -0.013 0.218 -0.098 -0.030 0.218 0.0026091487463331758
GW 1 1 -0.098 -0.030 0.218 -0.091 -0.046 0.218 0.0026091487463331758
GW 1 1 -0.091 -0.046 0.218 -0.082 -0.061 0.218 0.0026091487463331758
GW 1 1 -0.082 -0.061 0.218 -0.070 -0.074 0.218 0.0026091487463331758
GW 1 1 -0.070 -0.074 0.218 -0.056 -0.085 0.218 0.0026091487463331758
GW 1 1 -0.056 -0.085 0.218 -0.041 -0.093 0.218 0.0026091487463331758
GW 1 1 -0.041 -0.093 0.218 -0.025 -0.099 0.218 0.0026091487463331758
GW 1 1 -0.025 -0.099 0.218 -0.007 -0.102 0.218 0.0026091487463331758
GW 1 1 -0.007 -0.102 0.218 0.010 -0.101 0.218 0.0026091487463331758
GW 1 1 0.010 -0.101 0.218 0.028 -0.098 0.218 0.0026091487463331758
GW 1 1 0.028 -0.098 0.218 0.044 -0.092 0.218 0.0026091487463331758
GW 1 1 0.044 -0.092 0.218 0.059 -0.083 0.218 0.0026091487463331758
GW 1 1 0.059 -0.083 0.218 0.072 -0.072 0.218 0.0026091487463331758
GW 1 1 0.072 -0.072 0.218 0.084 -0.058 0.218 0.0026091487463331758
GW 1 1 0.084 -0.058 0.218 0.092 -0.043 0.218 0.0026091487463331758
GW 1 1 0.092 -0.043 0.218 0.098 -0.027 0.218 0.0026091487463331758
GW 999 1 0.098 -0.027 0.218 0.102 -0.010 0.218 0.0026091487463331758
GW 2 1 0.102 0.000 0.000 0.100 0.017 0.000 0.0026091487463331758
GW 2 1 0.100 0.017 0.000 0.096 0.034 0.000 0.0026091487463331758
GW 2 1 0.096 0.034 0.000 0.089 0.050 0.000 0.0026091487463331758
GW 2 1 0.089 0.050 0.000 0.079 0.065 0.000 0.0026091487463331758
GW 2 1 0.079 0.065 0.000 0.067 0.077 0.000 0.0026091487463331758
GW 2 1 0.067 0.077 0.000 0.052 0.087 0.000 0.0026091487463331758
GW 2 1 0.052 0.087 0.000 0.037 0.095 0.000 0.0026091487463331758
GW 2 1 0.037 0.095 0.000 0.020 0.100 0.000 0.0026091487463331758
GW 2 1 0.020 0.100 0.000 0.002 0.102 0.000 0.0026091487463331758
GW 2 1 0.002 0.102 0.000 -0.015 0.101 0.000 0.0026091487463331758
GW 2 1 -0.015 0.101 0.000 -0.032 0.097 0.000 0.0026091487463331758
GW 2 1 -0.032 0.097 0.000 -0.048 0.090 0.000 0.0026091487463331758
GW 2 1 -0.048 0.090 0.000 -0.063 0.080 0.000 0.0026091487463331758
GW 2 1 -0.063 0.080 0.000 -0.076 0.068 0.000 0.0026091487463331758
GW 2 1 -0.076 0.068 0.000 -0.086 0.054 0.000 0.0026091487463331758
GW 2 1 -0.086 0.054 0.000 -0.094 0.039 0.000 0.0026091487463331758
GW 2 1 -0.094 0.039 0.000 -0.100 0.022 0.000 0.0026091487463331758
GW 2 1 -0.100 0.022 0.000 -0.102 0.005 0.000 0.0026091487463331758
GW 2 1 -0.102 0.005 0.000 -0.101 -0.013 0.000 0.0026091487463331758
GW 2 1 -0.101 -0.013 0.000 -0.098 -0.030 0.000 0.0026091487463331758
GW 2 1 -0.098 -0.030 0.000 -0.091 -0.046 0.000 0.0026091487463331758
GW 2 1 -0.091 -0.046 0.000 -0.082 -0.061 0.000 0.0026091487463331758
GW 2 1 -0.082 -0.061 0.000 -0.070 -0.074 0.000 0.0026091487463331758
GW 2 1 -0.070 -0.074 0.000 -0.056 -0.085 0.000 0.0026091487463331758
GW 2 1 -0.056 -0.085 0.000 -0.041 -0.093 0.000 0.0026091487463331758
GW 2 1 -0.041 -0.093 0.000 -0.025 -0.099 0.000 0.0026091487463331758
GW 2 1 -0.025 -0.099 0.000 -0.007 -0.102 0.000 0.0026091487463331758
GW 2 1 -0.007 -0.102 0.000 0.010 -0.101 0.000 0.0026091487463331758
GW 2 1 0.010 -0.101 0.000 0.028 -0.098 0.000 0.0026091487463331758
GW 2 1 0.028 -0.098 0.000 0.044 -0.092 0.000 0.0026091487463331758
GW 2 1 0.044 -0.092 0.000 0.059 -0.083 0.000 0.0026091487463331758
GW 2 1 0.059 -0.083 0.000 0.072 -0.072 0.000 0.0026091487463331758
GW 2 1 0.072 -0.072 0.000 0.084 -0.058 0.000 0.0026091487463331758
GW 2 1 0.084 -0.058 0.000 0.092 -0.043 0.000 0.0026091487463331758
GW 2 1 0.092 -0.043 0.000 0.098 -0.027 0.000 0.0026091487463331758
GW 2 1 0.098 -0.027 0.000 0.102 -0.010 0.000 0.0026091487463331758
GW 3 5 0.102 0.000 0.000 0.102 0.000 0.218 0.0026091487463331758
GW 4 5 0.102 -0.010 0.000 0.102 -0.010 0.218 0.0026091487463331758
GM 0 0 0 0 0 0 0 8.000
GE -1
GN 2 0 0 0 11.000 0.010 
EK
LD 5 0 0 0 58000000.000000 
EX 0 999 1 0 1 0
FR 0 1 0 0 144.200 0
RP 0 1 1 1000 85.00 90.00 0 0
EN