CM No comments specified
CE
GW 1 20 -0.494 0.000 0.000 0.494 0.000 0.000 0.002291128517716964
GW 2 8 -0.466 0.563 0.000 -0.050 0.563 0.000 0.008681592094760321
GW 999 1 -0.050 0.563 0.000 0.002 0.563 0.000 0.008681592094760321
GW 2 8 0.002 0.563 0.000 0.466 0.563 0.000 0.008681592094760321
GW 3 18 -0.461 0.694 0.000 0.461 0.694 0.000 0.0021839201773496816
GW 4 18 -0.461 0.908 0.000 0.461 0.908 0.000 0.002788958868575627
GW 5 18 -0.461 1.153 0.000 0.461 1.153 0.000 0.0026524832780202546
GM 0 0 0 0 0 0 0 8.000
GE 1
GN 2 0 0 0 11.000 0.010 
EK
LD 5 0 0 0 58000000.000000 
EX 0 999 1 0 1 0
FR 0 1 0 0 144.200 0
RP 0 1 1 1000 87.00 90.00 0 0
EN