CM No comments specified
CE
GW 1 19 -0.487 0.000 0.000 0.487 0.000 0.000 0.002485
GW 2 11 -0.591 0.604 0.000 -0.019 0.604 0.000 0.00723
GW 999 1 -0.019 0.604 0.000 0.033 0.604 0.000 0.00723
GW 2 11 0.033 0.604 0.000 0.591 0.604 0.000 0.00723
GW 3 19 -0.479 0.723 0.000 0.479 0.723 0.000 0.002485
GW 4 19 -0.479 0.988 0.000 0.479 0.988 0.000 0.002485
GW 5 19 -0.479 1.230 0.000 0.479 1.230 0.000 0.002485
GM 0 0 0 0 0 0 0 8.000
GE 1
GN 2 0 0 0 11.000 0.010 
EK
LD 5 0 0 0 58000000.000000 
EX 0 999 1 0 1 0
FR 0 1 0 0 144.200 0
RP 0 1 1 1000 87.00 90.00 0 0
EN