CM No comments specified
CE
GW 1 1 0.076 0.000 0.000 0.074 0.013 0.002 0.0011910235085050753
GW 1 1 0.074 0.013 0.002 0.071 0.026 0.004 0.0011910235085050753
GW 1 1 0.071 0.026 0.004 0.065 0.038 0.006 0.0011910235085050753
GW 1 1 0.065 0.038 0.006 0.058 0.049 0.008 0.0011910235085050753
GW 1 1 0.058 0.049 0.008 0.049 0.058 0.009 0.0011910235085050753
GW 1 1 0.049 0.058 0.009 0.038 0.065 0.011 0.0011910235085050753
GW 1 1 0.038 0.065 0.011 0.026 0.071 0.013 0.0011910235085050753
GW 1 1 0.026 0.071 0.013 0.013 0.074 0.015 0.0011910235085050753
GW 1 1 0.013 0.074 0.015 0.000 0.076 0.017 0.0011910235085050753
GW 1 1 0.000 0.076 0.017 -0.013 0.074 0.019 0.0011910235085050753
GW 1 1 -0.013 0.074 0.019 -0.026 0.071 0.021 0.0011910235085050753
GW 1 1 -0.026 0.071 0.021 -0.038 0.065 0.023 0.0011910235085050753
GW 1 1 -0.038 0.065 0.023 -0.049 0.058 0.024 0.0011910235085050753
GW 1 1 -0.049 0.058 0.024 -0.058 0.049 0.026 0.0011910235085050753
GW 1 1 -0.058 0.049 0.026 -0.065 0.038 0.028 0.0011910235085050753
GW 1 1 -0.065 0.038 0.028 -0.071 0.026 0.030 0.0011910235085050753
GW 1 1 -0.071 0.026 0.030 -0.074 0.013 0.032 0.0011910235085050753
GW 1 1 -0.074 0.013 0.032 -0.076 0.000 0.034 0.0011910235085050753
GW 1 1 -0.076 0.000 0.034 -0.074 -0.013 0.036 0.0011910235085050753
GW 1 1 -0.074 -0.013 0.036 -0.071 -0.026 0.038 0.0011910235085050753
GW 1 1 -0.071 -0.026 0.038 -0.065 -0.038 0.040 0.0011910235085050753
GW 1 1 -0.065 -0.038 0.040 -0.058 -0.049 0.041 0.0011910235085050753
GW 1 1 -0.058 -0.049 0.041 -0.049 -0.058 0.043 0.0011910235085050753
GW 1 1 -0.049 -0.058 0.043 -0.038 -0.065 0.045 0.0011910235085050753
GW 1 1 -0.038 -0.065 0.045 -0.026 -0.071 0.047 0.0011910235085050753
GW 1 1 -0.026 -0.071 0.047 -0.013 -0.074 0.049 0.0011910235085050753
GW 1 1 -0.013 -0.074 0.049 -0.000 -0.076 0.051 0.0011910235085050753
GW 1 1 -0.000 -0.076 0.051 0.013 -0.074 0.053 0.0011910235085050753
GW 1 1 0.013 -0.074 0.053 0.026 -0.071 0.055 0.0011910235085050753
GW 1 1 0.026 -0.071 0.055 0.038 -0.065 0.056 0.0011910235085050753
GW 1 1 0.038 -0.065 0.056 0.049 -0.058 0.058 0.0011910235085050753
GW 1 1 0.049 -0.058 0.058 0.058 -0.049 0.060 0.0011910235085050753
GW 1 1 0.058 -0.049 0.060 0.065 -0.038 0.062 0.0011910235085050753
GW 1 1 0.065 -0.038 0.062 0.071 -0.026 0.064 0.0011910235085050753
GW 1 1 0.071 -0.026 0.064 0.074 -0.013 0.066 0.0011910235085050753
GW 1 1 0.074 -0.013 0.066 0.076 -0.000 0.068 0.0011910235085050753
GW 1 1 0.076 -0.000 0.068 0.074 0.013 0.070 0.0011910235085050753
GW 1 1 0.074 0.013 0.070 0.071 0.026 0.072 0.0011910235085050753
GW 1 1 0.071 0.026 0.072 0.065 0.038 0.073 0.0011910235085050753
GW 1 1 0.065 0.038 0.073 0.058 0.049 0.075 0.0011910235085050753
GW 1 1 0.058 0.049 0.075 0.049 0.058 0.077 0.0011910235085050753
GW 1 1 0.049 0.058 0.077 0.038 0.065 0.079 0.0011910235085050753
GW 1 1 0.038 0.065 0.079 0.026 0.071 0.081 0.0011910235085050753
GW 1 1 0.026 0.071 0.081 0.013 0.074 0.083 0.0011910235085050753
GW 1 1 0.013 0.074 0.083 0.000 0.076 0.085 0.0011910235085050753
GW 1 1 0.000 0.076 0.085 -0.013 0.074 0.087 0.0011910235085050753
GW 1 1 -0.013 0.074 0.087 -0.026 0.071 0.088 0.0011910235085050753
GW 1 1 -0.026 0.071 0.088 -0.038 0.065 0.090 0.0011910235085050753
GW 1 1 -0.038 0.065 0.090 -0.049 0.058 0.092 0.0011910235085050753
GW 1 1 -0.049 0.058 0.092 -0.058 0.049 0.094 0.0011910235085050753
GW 1 1 -0.058 0.049 0.094 -0.065 0.038 0.096 0.0011910235085050753
GW 1 1 -0.065 0.038 0.096 -0.071 0.026 0.098 0.0011910235085050753
GW 1 1 -0.071 0.026 0.098 -0.074 0.013 0.100 0.0011910235085050753
GW 1 1 -0.074 0.013 0.100 -0.076 0.000 0.102 0.0011910235085050753
GW 1 1 -0.076 0.000 0.102 -0.074 -0.013 0.104 0.0011910235085050753
GW 1 1 -0.074 -0.013 0.104 -0.071 -0.026 0.105 0.0011910235085050753
GW 1 1 -0.071 -0.026 0.105 -0.065 -0.038 0.107 0.0011910235085050753
GW 1 1 -0.065 -0.038 0.107 -0.058 -0.049 0.109 0.0011910235085050753
GW 1 1 -0.058 -0.049 0.109 -0.049 -0.058 0.111 0.0011910235085050753
GW 1 1 -0.049 -0.058 0.111 -0.038 -0.065 0.113 0.0011910235085050753
GW 1 1 -0.038 -0.065 0.113 -0.026 -0.071 0.115 0.0011910235085050753
GW 1 1 -0.026 -0.071 0.115 -0.013 -0.074 0.117 0.0011910235085050753
GW 1 1 -0.013 -0.074 0.117 -0.000 -0.076 0.119 0.0011910235085050753
GW 1 1 -0.000 -0.076 0.119 0.013 -0.074 0.120 0.0011910235085050753
GW 1 1 0.013 -0.074 0.120 0.026 -0.071 0.122 0.0011910235085050753
GW 1 1 0.026 -0.071 0.122 0.038 -0.065 0.124 0.0011910235085050753
GW 1 1 0.038 -0.065 0.124 0.049 -0.058 0.126 0.0011910235085050753
GW 1 1 0.049 -0.058 0.126 0.058 -0.049 0.128 0.0011910235085050753
GW 1 1 0.058 -0.049 0.128 0.065 -0.038 0.130 0.0011910235085050753
GW 1 1 0.065 -0.038 0.130 0.071 -0.026 0.132 0.0011910235085050753
GW 1 1 0.071 -0.026 0.132 0.074 -0.013 0.134 0.0011910235085050753
GW 1 1 0.074 -0.013 0.134 0.076 -0.000 0.136 0.0011910235085050753
GW 999 1 0.071 0.000 0.069 0.071 0.007 0.069 0.001
GW 4 1 0.071 0.007 0.069 0.069 0.013 0.069 0.001
GW 4 1 0.069 0.013 0.069 0.066 0.019 0.069 0.001
GW 4 1 0.066 0.019 0.069 0.062 0.024 0.069 0.001
GW 4 1 0.062 0.024 0.069 0.058 0.029 0.069 0.001
GW 4 1 0.058 0.029 0.069 0.052 0.033 0.069 0.001
GW 4 1 0.052 0.033 0.069 0.046 0.035 0.069 0.001
GW 4 1 0.046 0.035 0.069 0.040 0.037 0.069 0.001
GW 4 1 0.040 0.037 0.069 0.033 0.038 0.069 0.001
GW 4 1 0.033 0.038 0.069 0.027 0.037 0.069 0.001
GW 4 1 0.027 0.037 0.069 0.020 0.035 0.069 0.001
GW 4 1 0.020 0.035 0.069 0.015 0.033 0.069 0.001
GW 4 1 0.015 0.033 0.069 0.009 0.029 0.069 0.001
GW 4 1 0.009 0.029 0.069 0.005 0.024 0.069 0.001
GW 4 1 0.005 0.024 0.069 0.001 0.019 0.069 0.001
GW 4 1 0.001 0.019 0.069 -0.002 0.013 0.069 0.001
GW 4 1 -0.002 0.013 0.069 -0.004 0.007 0.069 0.001
GW 4 1 -0.004 0.007 0.069 -0.004 0.000 0.069 0.001
GW 4 1 -0.004 0.000 0.069 -0.004 -0.007 0.069 0.001
GW 4 1 -0.004 -0.007 0.069 -0.002 -0.013 0.069 0.001
GW 4 1 -0.002 -0.013 0.069 0.001 -0.019 0.069 0.001
GW 4 1 0.001 -0.019 0.069 0.005 -0.024 0.069 0.001
GW 4 1 0.005 -0.024 0.069 0.009 -0.029 0.069 0.001
GW 4 1 0.009 -0.029 0.069 0.015 -0.033 0.069 0.001
GW 4 1 0.015 -0.033 0.069 0.020 -0.035 0.069 0.001
GW 4 1 0.020 -0.035 0.069 0.027 -0.037 0.069 0.001
GW 4 1 0.027 -0.037 0.069 0.033 -0.038 0.069 0.001
GW 4 1 0.033 -0.038 0.069 0.040 -0.037 0.069 0.001
GW 4 1 0.040 -0.037 0.069 0.046 -0.035 0.069 0.001
GW 4 1 0.046 -0.035 0.069 0.052 -0.033 0.069 0.001
GW 4 1 0.052 -0.033 0.069 0.058 -0.029 0.069 0.001
GW 4 1 0.058 -0.029 0.069 0.062 -0.024 0.069 0.001
GW 4 1 0.062 -0.024 0.069 0.066 -0.019 0.069 0.001
GW 4 1 0.066 -0.019 0.069 0.069 -0.013 0.069 0.001
GW 4 1 0.069 -0.013 0.069 0.071 -0.007 0.069 0.001
GW 4 1 0.071 -0.007 0.069 0.071 -0.000 0.069 0.001
GW 2 1 0.076 0.000 0.272 0.074 -0.013 0.274 0.0011910235085050753
GW 2 1 0.074 -0.013 0.274 0.071 -0.026 0.276 0.0011910235085050753
GW 2 1 0.071 -0.026 0.276 0.065 -0.038 0.278 0.0011910235085050753
GW 2 1 0.065 -0.038 0.278 0.058 -0.049 0.280 0.0011910235085050753
GW 2 1 0.058 -0.049 0.280 0.049 -0.058 0.282 0.0011910235085050753
GW 2 1 0.049 -0.058 0.282 0.038 -0.065 0.284 0.0011910235085050753
GW 2 1 0.038 -0.065 0.284 0.026 -0.071 0.285 0.0011910235085050753
GW 2 1 0.026 -0.071 0.285 0.013 -0.074 0.287 0.0011910235085050753
GW 2 1 0.013 -0.074 0.287 0.000 -0.076 0.289 0.0011910235085050753
GW 2 1 0.000 -0.076 0.289 -0.013 -0.074 0.291 0.0011910235085050753
GW 2 1 -0.013 -0.074 0.291 -0.026 -0.071 0.293 0.0011910235085050753
GW 2 1 -0.026 -0.071 0.293 -0.038 -0.065 0.295 0.0011910235085050753
GW 2 1 -0.038 -0.065 0.295 -0.049 -0.058 0.297 0.0011910235085050753
GW 2 1 -0.049 -0.058 0.297 -0.058 -0.049 0.299 0.0011910235085050753
GW 2 1 -0.058 -0.049 0.299 -0.065 -0.038 0.301 0.0011910235085050753
GW 2 1 -0.065 -0.038 0.301 -0.071 -0.026 0.302 0.0011910235085050753
GW 2 1 -0.071 -0.026 0.302 -0.074 -0.013 0.304 0.0011910235085050753
GW 2 1 -0.074 -0.013 0.304 -0.076 -0.000 0.306 0.0011910235085050753
GW 2 1 -0.076 -0.000 0.306 -0.074 0.013 0.308 0.0011910235085050753
GW 2 1 -0.074 0.013 0.308 -0.071 0.026 0.310 0.0011910235085050753
GW 2 1 -0.071 0.026 0.310 -0.065 0.038 0.312 0.0011910235085050753
GW 2 1 -0.065 0.038 0.312 -0.058 0.049 0.314 0.0011910235085050753
GW 2 1 -0.058 0.049 0.314 -0.049 0.058 0.316 0.0011910235085050753
GW 2 1 -0.049 0.058 0.316 -0.038 0.065 0.317 0.0011910235085050753
GW 2 1 -0.038 0.065 0.317 -0.026 0.071 0.319 0.0011910235085050753
GW 2 1 -0.026 0.071 0.319 -0.013 0.074 0.321 0.0011910235085050753
GW 2 1 -0.013 0.074 0.321 -0.000 0.076 0.323 0.0011910235085050753
GW 2 1 -0.000 0.076 0.323 0.013 0.074 0.325 0.0011910235085050753
GW 2 1 0.013 0.074 0.325 0.026 0.071 0.327 0.0011910235085050753
GW 2 1 0.026 0.071 0.327 0.038 0.065 0.329 0.0011910235085050753
GW 2 1 0.038 0.065 0.329 0.049 0.058 0.331 0.0011910235085050753
GW 2 1 0.049 0.058 0.331 0.058 0.049 0.333 0.0011910235085050753
GW 2 1 0.058 0.049 0.333 0.065 0.038 0.334 0.0011910235085050753
GW 2 1 0.065 0.038 0.334 0.071 0.026 0.336 0.0011910235085050753
GW 2 1 0.071 0.026 0.336 0.074 0.013 0.338 0.0011910235085050753
GW 2 1 0.074 0.013 0.338 0.076 0.000 0.340 0.0011910235085050753
GW 2 1 0.076 0.000 0.340 0.074 -0.013 0.342 0.0011910235085050753
GW 2 1 0.074 -0.013 0.342 0.071 -0.026 0.344 0.0011910235085050753
GW 2 1 0.071 -0.026 0.344 0.065 -0.038 0.346 0.0011910235085050753
GW 2 1 0.065 -0.038 0.346 0.058 -0.049 0.348 0.0011910235085050753
GW 2 1 0.058 -0.049 0.348 0.049 -0.058 0.349 0.0011910235085050753
GW 2 1 0.049 -0.058 0.349 0.038 -0.065 0.351 0.0011910235085050753
GW 2 1 0.038 -0.065 0.351 0.026 -0.071 0.353 0.0011910235085050753
GW 2 1 0.026 -0.071 0.353 0.013 -0.074 0.355 0.0011910235085050753
GW 2 1 0.013 -0.074 0.355 0.000 -0.076 0.357 0.0011910235085050753
GW 2 1 0.000 -0.076 0.357 -0.013 -0.074 0.359 0.0011910235085050753
GW 2 1 -0.013 -0.074 0.359 -0.026 -0.071 0.361 0.0011910235085050753
GW 2 1 -0.026 -0.071 0.361 -0.038 -0.065 0.363 0.0011910235085050753
GW 2 1 -0.038 -0.065 0.363 -0.049 -0.058 0.365 0.0011910235085050753
GW 2 1 -0.049 -0.058 0.365 -0.058 -0.049 0.366 0.0011910235085050753
GW 2 1 -0.058 -0.049 0.366 -0.065 -0.038 0.368 0.0011910235085050753
GW 2 1 -0.065 -0.038 0.368 -0.071 -0.026 0.370 0.0011910235085050753
GW 2 1 -0.071 -0.026 0.370 -0.074 -0.013 0.372 0.0011910235085050753
GW 2 1 -0.074 -0.013 0.372 -0.076 -0.000 0.374 0.0011910235085050753
GW 2 1 -0.076 -0.000 0.374 -0.074 0.013 0.376 0.0011910235085050753
GW 2 1 -0.074 0.013 0.376 -0.071 0.026 0.378 0.0011910235085050753
GW 2 1 -0.071 0.026 0.378 -0.065 0.038 0.380 0.0011910235085050753
GW 2 1 -0.065 0.038 0.380 -0.058 0.049 0.381 0.0011910235085050753
GW 2 1 -0.058 0.049 0.381 -0.049 0.058 0.383 0.0011910235085050753
GW 2 1 -0.049 0.058 0.383 -0.038 0.065 0.385 0.0011910235085050753
GW 2 1 -0.038 0.065 0.385 -0.026 0.071 0.387 0.0011910235085050753
GW 2 1 -0.026 0.071 0.387 -0.013 0.074 0.389 0.0011910235085050753
GW 2 1 -0.013 0.074 0.389 -0.000 0.076 0.391 0.0011910235085050753
GW 2 1 -0.000 0.076 0.391 0.013 0.074 0.393 0.0011910235085050753
GW 2 1 0.013 0.074 0.393 0.026 0.071 0.395 0.0011910235085050753
GW 2 1 0.026 0.071 0.395 0.038 0.065 0.397 0.0011910235085050753
GW 2 1 0.038 0.065 0.397 0.049 0.058 0.398 0.0011910235085050753
GW 2 1 0.049 0.058 0.398 0.058 0.049 0.400 0.0011910235085050753
GW 2 1 0.058 0.049 0.400 0.065 0.038 0.402 0.0011910235085050753
GW 2 1 0.065 0.038 0.402 0.071 0.026 0.404 0.0011910235085050753
GW 2 1 0.071 0.026 0.404 0.074 0.013 0.406 0.0011910235085050753
GW 2 1 0.074 0.013 0.406 0.076 0.000 0.408 0.0011910235085050753
GW 3 3 0.076 -0.000 0.136 0.076 0.000 0.272 0.0011910235085050753
GM 0 0 0 0 0 0 0 8.000
GE 1
GN 2 0 0 0 11.000 0.010 
EK
LD 5 0 0 0 58000000.000000 
EX 0 999 1 0 1 0
FR 0 1 0 0 144.200 0
RP 0 1 1 1000 87.00 90.00 0 0
EN