CM No comments specified
CE
GW 1 1 0.068 0.000 0.000 0.067 0.012 0.002 0.0008515034879513185
GW 1 1 0.067 0.012 0.002 0.064 0.023 0.004 0.0008515034879513185
GW 1 1 0.064 0.023 0.004 0.059 0.034 0.006 0.0008515034879513185
GW 1 1 0.059 0.034 0.006 0.052 0.043 0.008 0.0008515034879513185
GW 1 1 0.052 0.043 0.008 0.043 0.052 0.010 0.0008515034879513185
GW 1 1 0.043 0.052 0.010 0.034 0.059 0.013 0.0008515034879513185
GW 1 1 0.034 0.059 0.013 0.023 0.064 0.015 0.0008515034879513185
GW 1 1 0.023 0.064 0.015 0.012 0.067 0.017 0.0008515034879513185
GW 1 1 0.012 0.067 0.017 0.000 0.068 0.019 0.0008515034879513185
GW 1 1 0.000 0.068 0.019 -0.012 0.067 0.021 0.0008515034879513185
GW 1 1 -0.012 0.067 0.021 -0.023 0.064 0.023 0.0008515034879513185
GW 1 1 -0.023 0.064 0.023 -0.034 0.059 0.025 0.0008515034879513185
GW 1 1 -0.034 0.059 0.025 -0.043 0.052 0.027 0.0008515034879513185
GW 1 1 -0.043 0.052 0.027 -0.052 0.043 0.029 0.0008515034879513185
GW 1 1 -0.052 0.043 0.029 -0.059 0.034 0.031 0.0008515034879513185
GW 1 1 -0.059 0.034 0.031 -0.064 0.023 0.034 0.0008515034879513185
GW 1 1 -0.064 0.023 0.034 -0.067 0.012 0.036 0.0008515034879513185
GW 1 1 -0.067 0.012 0.036 -0.068 0.000 0.038 0.0008515034879513185
GW 1 1 -0.068 0.000 0.038 -0.067 -0.012 0.040 0.0008515034879513185
GW 1 1 -0.067 -0.012 0.040 -0.064 -0.023 0.042 0.0008515034879513185
GW 1 1 -0.064 -0.023 0.042 -0.059 -0.034 0.044 0.0008515034879513185
GW 1 1 -0.059 -0.034 0.044 -0.052 -0.043 0.046 0.0008515034879513185
GW 1 1 -0.052 -0.043 0.046 -0.043 -0.052 0.048 0.0008515034879513185
GW 1 1 -0.043 -0.052 0.048 -0.034 -0.059 0.050 0.0008515034879513185
GW 1 1 -0.034 -0.059 0.050 -0.023 -0.064 0.052 0.0008515034879513185
GW 1 1 -0.023 -0.064 0.052 -0.012 -0.067 0.054 0.0008515034879513185
GW 1 1 -0.012 -0.067 0.054 -0.000 -0.068 0.057 0.0008515034879513185
GW 1 1 -0.000 -0.068 0.057 0.012 -0.067 0.059 0.0008515034879513185
GW 1 1 0.012 -0.067 0.059 0.023 -0.064 0.061 0.0008515034879513185
GW 1 1 0.023 -0.064 0.061 0.034 -0.059 0.063 0.0008515034879513185
GW 1 1 0.034 -0.059 0.063 0.043 -0.052 0.065 0.0008515034879513185
GW 1 1 0.043 -0.052 0.065 0.052 -0.043 0.067 0.0008515034879513185
GW 1 1 0.052 -0.043 0.067 0.059 -0.034 0.069 0.0008515034879513185
GW 1 1 0.059 -0.034 0.069 0.064 -0.023 0.071 0.0008515034879513185
GW 1 1 0.064 -0.023 0.071 0.067 -0.012 0.073 0.0008515034879513185
GW 1 1 0.067 -0.012 0.073 0.068 -0.000 0.075 0.0008515034879513185
GW 1 1 0.068 -0.000 0.075 0.067 0.012 0.077 0.0008515034879513185
GW 1 1 0.067 0.012 0.077 0.064 0.023 0.080 0.0008515034879513185
GW 1 1 0.064 0.023 0.080 0.059 0.034 0.082 0.0008515034879513185
GW 1 1 0.059 0.034 0.082 0.052 0.043 0.084 0.0008515034879513185
GW 1 1 0.052 0.043 0.084 0.043 0.052 0.086 0.0008515034879513185
GW 1 1 0.043 0.052 0.086 0.034 0.059 0.088 0.0008515034879513185
GW 1 1 0.034 0.059 0.088 0.023 0.064 0.090 0.0008515034879513185
GW 1 1 0.023 0.064 0.090 0.012 0.067 0.092 0.0008515034879513185
GW 1 1 0.012 0.067 0.092 0.000 0.068 0.094 0.0008515034879513185
GW 1 1 0.000 0.068 0.094 -0.012 0.067 0.096 0.0008515034879513185
GW 1 1 -0.012 0.067 0.096 -0.023 0.064 0.098 0.0008515034879513185
GW 1 1 -0.023 0.064 0.098 -0.034 0.059 0.101 0.0008515034879513185
GW 1 1 -0.034 0.059 0.101 -0.043 0.052 0.103 0.0008515034879513185
GW 1 1 -0.043 0.052 0.103 -0.052 0.043 0.105 0.0008515034879513185
GW 1 1 -0.052 0.043 0.105 -0.059 0.034 0.107 0.0008515034879513185
GW 1 1 -0.059 0.034 0.107 -0.064 0.023 0.109 0.0008515034879513185
GW 1 1 -0.064 0.023 0.109 -0.067 0.012 0.111 0.0008515034879513185
GW 1 1 -0.067 0.012 0.111 -0.068 0.000 0.113 0.0008515034879513185
GW 1 1 -0.068 0.000 0.113 -0.067 -0.012 0.115 0.0008515034879513185
GW 1 1 -0.067 -0.012 0.115 -0.064 -0.023 0.117 0.0008515034879513185
GW 1 1 -0.064 -0.023 0.117 -0.059 -0.034 0.119 0.0008515034879513185
GW 1 1 -0.059 -0.034 0.119 -0.052 -0.043 0.121 0.0008515034879513185
GW 1 1 -0.052 -0.043 0.121 -0.043 -0.052 0.124 0.0008515034879513185
GW 1 1 -0.043 -0.052 0.124 -0.034 -0.059 0.126 0.0008515034879513185
GW 1 1 -0.034 -0.059 0.126 -0.023 -0.064 0.128 0.0008515034879513185
GW 1 1 -0.023 -0.064 0.128 -0.012 -0.067 0.130 0.0008515034879513185
GW 1 1 -0.012 -0.067 0.130 -0.000 -0.068 0.132 0.0008515034879513185
GW 1 1 -0.000 -0.068 0.132 0.012 -0.067 0.134 0.0008515034879513185
GW 1 1 0.012 -0.067 0.134 0.023 -0.064 0.136 0.0008515034879513185
GW 1 1 0.023 -0.064 0.136 0.034 -0.059 0.138 0.0008515034879513185
GW 1 1 0.034 -0.059 0.138 0.043 -0.052 0.140 0.0008515034879513185
GW 1 1 0.043 -0.052 0.140 0.052 -0.043 0.142 0.0008515034879513185
GW 1 1 0.052 -0.043 0.142 0.059 -0.034 0.144 0.0008515034879513185
GW 1 1 0.059 -0.034 0.144 0.064 -0.023 0.147 0.0008515034879513185
GW 1 1 0.064 -0.023 0.147 0.067 -0.012 0.149 0.0008515034879513185
GW 1 1 0.067 -0.012 0.149 0.068 -0.000 0.151 0.0008515034879513185
GW 999 1 0.064 0.000 0.090 0.063 0.006 0.090 0.001
GW 4 1 0.063 0.006 0.090 0.061 0.012 0.090 0.001
GW 4 1 0.061 0.012 0.090 0.059 0.018 0.090 0.001
GW 4 1 0.059 0.018 0.090 0.055 0.023 0.090 0.001
GW 4 1 0.055 0.023 0.090 0.051 0.027 0.090 0.001
GW 4 1 0.051 0.027 0.090 0.046 0.031 0.090 0.001
GW 4 1 0.046 0.031 0.090 0.040 0.033 0.090 0.001
GW 4 1 0.040 0.033 0.090 0.034 0.035 0.090 0.001
GW 4 1 0.034 0.035 0.090 0.028 0.035 0.090 0.001
GW 4 1 0.028 0.035 0.090 0.022 0.035 0.090 0.001
GW 4 1 0.022 0.035 0.090 0.016 0.033 0.090 0.001
GW 4 1 0.016 0.033 0.090 0.011 0.031 0.090 0.001
GW 4 1 0.011 0.031 0.090 0.006 0.027 0.090 0.001
GW 4 1 0.006 0.027 0.090 0.001 0.023 0.090 0.001
GW 4 1 0.001 0.023 0.090 -0.002 0.018 0.090 0.001
GW 4 1 -0.002 0.018 0.090 -0.005 0.012 0.090 0.001
GW 4 1 -0.005 0.012 0.090 -0.006 0.006 0.090 0.001
GW 4 1 -0.006 0.006 0.090 -0.007 0.000 0.090 0.001
GW 4 1 -0.007 0.000 0.090 -0.006 -0.006 0.090 0.001
GW 4 1 -0.006 -0.006 0.090 -0.005 -0.012 0.090 0.001
GW 4 1 -0.005 -0.012 0.090 -0.002 -0.018 0.090 0.001
GW 4 1 -0.002 -0.018 0.090 0.001 -0.023 0.090 0.001
GW 4 1 0.001 -0.023 0.090 0.006 -0.027 0.090 0.001
GW 4 1 0.006 -0.027 0.090 0.011 -0.031 0.090 0.001
GW 4 1 0.011 -0.031 0.090 0.016 -0.033 0.090 0.001
GW 4 1 0.016 -0.033 0.090 0.022 -0.035 0.090 0.001
GW 4 1 0.022 -0.035 0.090 0.028 -0.035 0.090 0.001
GW 4 1 0.028 -0.035 0.090 0.034 -0.035 0.090 0.001
GW 4 1 0.034 -0.035 0.090 0.040 -0.033 0.090 0.001
GW 4 1 0.040 -0.033 0.090 0.046 -0.031 0.090 0.001
GW 4 1 0.046 -0.031 0.090 0.051 -0.027 0.090 0.001
GW 4 1 0.051 -0.027 0.090 0.055 -0.023 0.090 0.001
GW 4 1 0.055 -0.023 0.090 0.059 -0.018 0.090 0.001
GW 4 1 0.059 -0.018 0.090 0.061 -0.012 0.090 0.001
GW 4 1 0.061 -0.012 0.090 0.063 -0.006 0.090 0.001
GW 4 1 0.063 -0.006 0.090 0.064 -0.000 0.090 0.001
GW 2 1 0.068 0.000 0.287 0.067 -0.012 0.289 0.0008515034879513185
GW 2 1 0.067 -0.012 0.289 0.064 -0.023 0.291 0.0008515034879513185
GW 2 1 0.064 -0.023 0.291 0.059 -0.034 0.293 0.0008515034879513185
GW 2 1 0.059 -0.034 0.293 0.052 -0.043 0.295 0.0008515034879513185
GW 2 1 0.052 -0.043 0.295 0.043 -0.052 0.297 0.0008515034879513185
GW 2 1 0.043 -0.052 0.297 0.034 -0.059 0.299 0.0008515034879513185
GW 2 1 0.034 -0.059 0.299 0.023 -0.064 0.302 0.0008515034879513185
GW 2 1 0.023 -0.064 0.302 0.012 -0.067 0.304 0.0008515034879513185
GW 2 1 0.012 -0.067 0.304 0.000 -0.068 0.306 0.0008515034879513185
GW 2 1 0.000 -0.068 0.306 -0.012 -0.067 0.308 0.0008515034879513185
GW 2 1 -0.012 -0.067 0.308 -0.023 -0.064 0.310 0.0008515034879513185
GW 2 1 -0.023 -0.064 0.310 -0.034 -0.059 0.312 0.0008515034879513185
GW 2 1 -0.034 -0.059 0.312 -0.043 -0.052 0.314 0.0008515034879513185
GW 2 1 -0.043 -0.052 0.314 -0.052 -0.043 0.316 0.0008515034879513185
GW 2 1 -0.052 -0.043 0.316 -0.059 -0.034 0.318 0.0008515034879513185
GW 2 1 -0.059 -0.034 0.318 -0.064 -0.023 0.320 0.0008515034879513185
GW 2 1 -0.064 -0.023 0.320 -0.067 -0.012 0.322 0.0008515034879513185
GW 2 1 -0.067 -0.012 0.322 -0.068 -0.000 0.325 0.0008515034879513185
GW 2 1 -0.068 -0.000 0.325 -0.067 0.012 0.327 0.0008515034879513185
GW 2 1 -0.067 0.012 0.327 -0.064 0.023 0.329 0.0008515034879513185
GW 2 1 -0.064 0.023 0.329 -0.059 0.034 0.331 0.0008515034879513185
GW 2 1 -0.059 0.034 0.331 -0.052 0.043 0.333 0.0008515034879513185
GW 2 1 -0.052 0.043 0.333 -0.043 0.052 0.335 0.0008515034879513185
GW 2 1 -0.043 0.052 0.335 -0.034 0.059 0.337 0.0008515034879513185
GW 2 1 -0.034 0.059 0.337 -0.023 0.064 0.339 0.0008515034879513185
GW 2 1 -0.023 0.064 0.339 -0.012 0.067 0.341 0.0008515034879513185
GW 2 1 -0.012 0.067 0.341 -0.000 0.068 0.343 0.0008515034879513185
GW 2 1 -0.000 0.068 0.343 0.012 0.067 0.345 0.0008515034879513185
GW 2 1 0.012 0.067 0.345 0.023 0.064 0.348 0.0008515034879513185
GW 2 1 0.023 0.064 0.348 0.034 0.059 0.350 0.0008515034879513185
GW 2 1 0.034 0.059 0.350 0.043 0.052 0.352 0.0008515034879513185
GW 2 1 0.043 0.052 0.352 0.052 0.043 0.354 0.0008515034879513185
GW 2 1 0.052 0.043 0.354 0.059 0.034 0.356 0.0008515034879513185
GW 2 1 0.059 0.034 0.356 0.064 0.023 0.358 0.0008515034879513185
GW 2 1 0.064 0.023 0.358 0.067 0.012 0.360 0.0008515034879513185
GW 2 1 0.067 0.012 0.360 0.068 0.000 0.362 0.0008515034879513185
GW 2 1 0.068 0.000 0.362 0.067 -0.012 0.364 0.0008515034879513185
GW 2 1 0.067 -0.012 0.364 0.064 -0.023 0.366 0.0008515034879513185
GW 2 1 0.064 -0.023 0.366 0.059 -0.034 0.369 0.0008515034879513185
GW 2 1 0.059 -0.034 0.369 0.052 -0.043 0.371 0.0008515034879513185
GW 2 1 0.052 -0.043 0.371 0.043 -0.052 0.373 0.0008515034879513185
GW 2 1 0.043 -0.052 0.373 0.034 -0.059 0.375 0.0008515034879513185
GW 2 1 0.034 -0.059 0.375 0.023 -0.064 0.377 0.0008515034879513185
GW 2 1 0.023 -0.064 0.377 0.012 -0.067 0.379 0.0008515034879513185
GW 2 1 0.012 -0.067 0.379 0.000 -0.068 0.381 0.0008515034879513185
GW 2 1 0.000 -0.068 0.381 -0.012 -0.067 0.383 0.0008515034879513185
GW 2 1 -0.012 -0.067 0.383 -0.023 -0.064 0.385 0.0008515034879513185
GW 2 1 -0.023 -0.064 0.385 -0.034 -0.059 0.387 0.0008515034879513185
GW 2 1 -0.034 -0.059 0.387 -0.043 -0.052 0.389 0.0008515034879513185
GW 2 1 -0.043 -0.052 0.389 -0.052 -0.043 0.392 0.0008515034879513185
GW 2 1 -0.052 -0.043 0.392 -0.059 -0.034 0.394 0.0008515034879513185
GW 2 1 -0.059 -0.034 0.394 -0.064 -0.023 0.396 0.0008515034879513185
GW 2 1 -0.064 -0.023 0.396 -0.067 -0.012 0.398 0.0008515034879513185
GW 2 1 -0.067 -0.012 0.398 -0.068 -0.000 0.400 0.0008515034879513185
GW 2 1 -0.068 -0.000 0.400 -0.067 0.012 0.402 0.0008515034879513185
GW 2 1 -0.067 0.012 0.402 -0.064 0.023 0.404 0.0008515034879513185
GW 2 1 -0.064 0.023 0.404 -0.059 0.034 0.406 0.0008515034879513185
GW 2 1 -0.059 0.034 0.406 -0.052 0.043 0.408 0.0008515034879513185
GW 2 1 -0.052 0.043 0.408 -0.043 0.052 0.410 0.0008515034879513185
GW 2 1 -0.043 0.052 0.410 -0.034 0.059 0.412 0.0008515034879513185
GW 2 1 -0.034 0.059 0.412 -0.023 0.064 0.415 0.0008515034879513185
GW 2 1 -0.023 0.064 0.415 -0.012 0.067 0.417 0.0008515034879513185
GW 2 1 -0.012 0.067 0.417 -0.000 0.068 0.419 0.0008515034879513185
GW 2 1 -0.000 0.068 0.419 0.012 0.067 0.421 0.0008515034879513185
GW 2 1 0.012 0.067 0.421 0.023 0.064 0.423 0.0008515034879513185
GW 2 1 0.023 0.064 0.423 0.034 0.059 0.425 0.0008515034879513185
GW 2 1 0.034 0.059 0.425 0.043 0.052 0.427 0.0008515034879513185
GW 2 1 0.043 0.052 0.427 0.052 0.043 0.429 0.0008515034879513185
GW 2 1 0.052 0.043 0.429 0.059 0.034 0.431 0.0008515034879513185
GW 2 1 0.059 0.034 0.431 0.064 0.023 0.433 0.0008515034879513185
GW 2 1 0.064 0.023 0.433 0.067 0.012 0.436 0.0008515034879513185
GW 2 1 0.067 0.012 0.436 0.068 0.000 0.438 0.0008515034879513185
GW 3 3 0.068 -0.000 0.151 0.068 0.000 0.287 0.0008515034879513185
GM 0 0 0 0 0 0 0 8.000
GE 1
GN 2 0 0 0 11.000 0.010 
EK
LD 5 0 0 0 58000000.000000 
EX 0 999 1 0 1 0
FR 0 1 0 0 144.200 0
RP 0 1 1 1000 87.00 90.00 0 0
EN