CM No comments specified
CE
GW 1 2 -0.136 0.000 0.120 -0.031 0.000 0.120 0.0025
GW 999 1 -0.031 0.000 0.120 0.021 0.000 0.120 0.0025
GW 1 2 0.021 0.000 0.120 0.136 0.000 0.120 0.0025
GW 3 17 -0.133 -0.330 0.126 -0.133 -0.330 0.964 0.0025
GW 3 17 0.133 -0.330 0.126 0.133 -0.330 0.964 0.0025
GW 3 6 -0.133 -0.330 0.126 0.133 -0.330 0.126 0.0025
GW 3 3 -0.133 -0.330 0.964 0.000 -0.330 0.964 0.0025
GW 3 3 0.000 -0.330 0.964 0.133 -0.330 0.964 0.0025
GW 2 3 -0.136 0.000 0.000 -0.136 0.000 0.120 0.0025
GW 2 3 0.136 0.000 0.000 0.136 0.000 0.120 0.0025
GW 2 6 -0.136 0.000 0.000 0.136 0.000 0.000 0.0025
GW 2 3 -0.136 0.000 0.970 0.000 0.000 0.970 0.0025
GW 2 17 -0.136 0.000 0.120 -0.136 0.000 0.970 0.0025
GW 2 17 0.136 0.000 0.120 0.136 0.000 0.970 0.0025
GW 2 3 0.000 0.000 0.970 0.136 0.000 0.970 0.0025
GW 4 7 0.000 0.000 0.970 0.000 -0.330 0.964 0.0005
GW 5 10 1.000 -0.400 0.000 1.000 -0.400 0.500 0.0025
GW 5 10 1.000 -0.300 0.000 1.000 -0.300 0.500 0.0025
GW 5 10 1.000 -0.200 0.000 1.000 -0.200 0.500 0.0025
GW 5 10 1.000 -0.100 0.000 1.000 -0.100 0.500 0.0025
GW 5 10 1.000 0.000 0.000 1.000 0.000 0.500 0.0025
GW 5 10 1.000 0.100 0.000 1.000 0.100 0.500 0.0025
GW 5 10 1.000 0.200 0.000 1.000 0.200 0.500 0.0025
GW 5 10 1.000 0.300 0.000 1.000 0.300 0.500 0.0025
GW 5 10 1.000 0.400 0.000 1.000 0.400 0.500 0.0025
GW 5 10 1.000 0.500 0.000 1.000 0.500 0.500 0.0025
GW 5 20 1.000 -0.500 0.000 1.000 0.500 0.000 0.0025
GW 5 20 1.000 -0.500 0.100 1.000 0.500 0.100 0.0025
GW 5 20 1.000 -0.500 0.200 1.000 0.500 0.200 0.0025
GW 5 20 1.000 -0.500 0.300 1.000 0.500 0.300 0.0025
GW 5 20 1.000 -0.500 0.400 1.000 0.500 0.400 0.0025
GW 5 20 1.000 -0.500 0.500 1.000 0.500 0.500 0.0025
GM 0 0 0 0 0 0 0 8.000
GE -1
GN 2 0 0 0 11.000 0.010 
EK
LD 5 0 0 0 58000000.000000 
LD 1 5 0 0 1000000000000.00000000 0.00000000 0.00000000
EX 0 999 1 0 1 0
FR 0 1 0 0 144.200 0
RP 0 1 1 1000 85.00 90.00 0 0
EN