CM No comments specified
CE
GW 1 1 0.080 0.000 0.000 0.079 0.014 0.002 0.004
GW 1 1 0.079 0.014 0.002 0.075 0.027 0.004 0.004
GW 1 1 0.075 0.027 0.004 0.069 0.040 0.007 0.004
GW 1 1 0.069 0.040 0.007 0.061 0.052 0.009 0.004
GW 1 1 0.061 0.052 0.009 0.052 0.061 0.011 0.004
GW 1 1 0.052 0.061 0.011 0.040 0.069 0.013 0.004
GW 1 1 0.040 0.069 0.013 0.027 0.075 0.015 0.004
GW 1 1 0.027 0.075 0.015 0.014 0.079 0.018 0.004
GW 1 1 0.014 0.079 0.018 0.000 0.080 0.020 0.004
GW 1 1 0.000 0.080 0.020 -0.014 0.079 0.022 0.004
GW 1 1 -0.014 0.079 0.022 -0.027 0.075 0.024 0.004
GW 1 1 -0.027 0.075 0.024 -0.040 0.069 0.027 0.004
GW 1 1 -0.040 0.069 0.027 -0.052 0.061 0.029 0.004
GW 1 1 -0.052 0.061 0.029 -0.061 0.052 0.031 0.004
GW 1 1 -0.061 0.052 0.031 -0.069 0.040 0.033 0.004
GW 1 1 -0.069 0.040 0.033 -0.075 0.027 0.035 0.004
GW 1 1 -0.075 0.027 0.035 -0.079 0.014 0.038 0.004
GW 1 1 -0.079 0.014 0.038 -0.080 0.000 0.040 0.004
GW 1 1 -0.080 0.000 0.040 -0.079 -0.014 0.042 0.004
GW 1 1 -0.079 -0.014 0.042 -0.075 -0.027 0.044 0.004
GW 1 1 -0.075 -0.027 0.044 -0.069 -0.040 0.046 0.004
GW 1 1 -0.069 -0.040 0.046 -0.061 -0.052 0.049 0.004
GW 1 1 -0.061 -0.052 0.049 -0.052 -0.061 0.051 0.004
GW 1 1 -0.052 -0.061 0.051 -0.040 -0.069 0.053 0.004
GW 1 1 -0.040 -0.069 0.053 -0.027 -0.075 0.055 0.004
GW 1 1 -0.027 -0.075 0.055 -0.014 -0.079 0.057 0.004
GW 1 1 -0.014 -0.079 0.057 -0.000 -0.080 0.060 0.004
GW 1 1 -0.000 -0.080 0.060 0.014 -0.079 0.062 0.004
GW 1 1 0.014 -0.079 0.062 0.027 -0.075 0.064 0.004
GW 1 1 0.027 -0.075 0.064 0.040 -0.069 0.066 0.004
GW 1 1 0.040 -0.069 0.066 0.052 -0.061 0.068 0.004
GW 1 1 0.052 -0.061 0.068 0.061 -0.052 0.071 0.004
GW 1 1 0.061 -0.052 0.071 0.069 -0.040 0.073 0.004
GW 1 1 0.069 -0.040 0.073 0.075 -0.027 0.075 0.004
GW 1 1 0.075 -0.027 0.075 0.079 -0.014 0.077 0.004
GW 1 1 0.079 -0.014 0.077 0.080 -0.000 0.080 0.004
GW 1 1 0.080 -0.000 0.080 0.079 0.014 0.082 0.004
GW 1 1 0.079 0.014 0.082 0.075 0.027 0.084 0.004
GW 1 1 0.075 0.027 0.084 0.069 0.040 0.086 0.004
GW 1 1 0.069 0.040 0.086 0.061 0.052 0.088 0.004
GW 1 1 0.061 0.052 0.088 0.052 0.061 0.091 0.004
GW 1 1 0.052 0.061 0.091 0.040 0.069 0.093 0.004
GW 1 1 0.040 0.069 0.093 0.027 0.075 0.095 0.004
GW 1 1 0.027 0.075 0.095 0.014 0.079 0.097 0.004
GW 1 1 0.014 0.079 0.097 0.000 0.080 0.099 0.004
GW 1 1 0.000 0.080 0.099 -0.014 0.079 0.102 0.004
GW 1 1 -0.014 0.079 0.102 -0.027 0.075 0.104 0.004
GW 1 1 -0.027 0.075 0.104 -0.040 0.069 0.106 0.004
GW 1 1 -0.040 0.069 0.106 -0.052 0.061 0.108 0.004
GW 1 1 -0.052 0.061 0.108 -0.061 0.052 0.110 0.004
GW 1 1 -0.061 0.052 0.110 -0.069 0.040 0.113 0.004
GW 1 1 -0.069 0.040 0.113 -0.075 0.027 0.115 0.004
GW 1 1 -0.075 0.027 0.115 -0.079 0.014 0.117 0.004
GW 1 1 -0.079 0.014 0.117 -0.080 0.000 0.119 0.004
GW 1 1 -0.080 0.000 0.119 -0.079 -0.014 0.121 0.004
GW 1 1 -0.079 -0.014 0.121 -0.075 -0.027 0.124 0.004
GW 1 1 -0.075 -0.027 0.124 -0.069 -0.040 0.126 0.004
GW 1 1 -0.069 -0.040 0.126 -0.061 -0.052 0.128 0.004
GW 1 1 -0.061 -0.052 0.128 -0.052 -0.061 0.130 0.004
GW 1 1 -0.052 -0.061 0.130 -0.040 -0.069 0.133 0.004
GW 1 1 -0.040 -0.069 0.133 -0.027 -0.075 0.135 0.004
GW 1 1 -0.027 -0.075 0.135 -0.014 -0.079 0.137 0.004
GW 1 1 -0.014 -0.079 0.137 -0.000 -0.080 0.139 0.004
GW 1 1 -0.000 -0.080 0.139 0.014 -0.079 0.141 0.004
GW 1 1 0.014 -0.079 0.141 0.027 -0.075 0.144 0.004
GW 1 1 0.027 -0.075 0.144 0.040 -0.069 0.146 0.004
GW 1 1 0.040 -0.069 0.146 0.052 -0.061 0.148 0.004
GW 1 1 0.052 -0.061 0.148 0.061 -0.052 0.150 0.004
GW 1 1 0.061 -0.052 0.150 0.069 -0.040 0.152 0.004
GW 1 1 0.069 -0.040 0.152 0.075 -0.027 0.155 0.004
GW 1 1 0.075 -0.027 0.155 0.079 -0.014 0.157 0.004
GW 1 1 0.079 -0.014 0.157 0.080 -0.000 0.159 0.004
GW 999 1 0.073 0.000 0.082 0.073 0.007 0.082 0.001
GW 2 1 0.073 0.007 0.082 0.071 0.013 0.082 0.001
GW 2 1 0.071 0.013 0.082 0.068 0.019 0.082 0.001
GW 2 1 0.068 0.019 0.082 0.064 0.025 0.082 0.001
GW 2 1 0.064 0.025 0.082 0.059 0.030 0.082 0.001
GW 2 1 0.059 0.030 0.082 0.054 0.034 0.082 0.001
GW 2 1 0.054 0.034 0.082 0.048 0.037 0.082 0.001
GW 2 1 0.048 0.037 0.082 0.041 0.038 0.082 0.001
GW 2 1 0.041 0.038 0.082 0.034 0.039 0.082 0.001
GW 2 1 0.034 0.039 0.082 0.027 0.038 0.082 0.001
GW 2 1 0.027 0.038 0.082 0.021 0.037 0.082 0.001
GW 2 1 0.021 0.037 0.082 0.015 0.034 0.082 0.001
GW 2 1 0.015 0.034 0.082 0.009 0.030 0.082 0.001
GW 2 1 0.009 0.030 0.082 0.004 0.025 0.082 0.001
GW 2 1 0.004 0.025 0.082 0.000 0.019 0.082 0.001
GW 2 1 0.000 0.019 0.082 -0.002 0.013 0.082 0.001
GW 2 1 -0.002 0.013 0.082 -0.004 0.007 0.082 0.001
GW 2 1 -0.004 0.007 0.082 -0.005 0.000 0.082 0.001
GW 2 1 -0.005 0.000 0.082 -0.004 -0.007 0.082 0.001
GW 2 1 -0.004 -0.007 0.082 -0.002 -0.013 0.082 0.001
GW 2 1 -0.002 -0.013 0.082 0.000 -0.019 0.082 0.001
GW 2 1 0.000 -0.019 0.082 0.004 -0.025 0.082 0.001
GW 2 1 0.004 -0.025 0.082 0.009 -0.030 0.082 0.001
GW 2 1 0.009 -0.030 0.082 0.015 -0.034 0.082 0.001
GW 2 1 0.015 -0.034 0.082 0.021 -0.037 0.082 0.001
GW 2 1 0.021 -0.037 0.082 0.027 -0.038 0.082 0.001
GW 2 1 0.027 -0.038 0.082 0.034 -0.039 0.082 0.001
GW 2 1 0.034 -0.039 0.082 0.041 -0.038 0.082 0.001
GW 2 1 0.041 -0.038 0.082 0.048 -0.037 0.082 0.001
GW 2 1 0.048 -0.037 0.082 0.054 -0.034 0.082 0.001
GW 2 1 0.054 -0.034 0.082 0.059 -0.030 0.082 0.001
GW 2 1 0.059 -0.030 0.082 0.064 -0.025 0.082 0.001
GW 2 1 0.064 -0.025 0.082 0.068 -0.020 0.082 0.001
GW 2 1 0.068 -0.020 0.082 0.071 -0.013 0.082 0.001
GW 2 1 0.071 -0.013 0.082 0.073 -0.007 0.082 0.001
GW 2 1 0.073 -0.007 0.082 0.073 -0.000 0.082 0.001
GM 0 0 0 0 0 0 0 8.000
GE 1
GN 2 0 0 0 11.000 0.010 
EK
LD 5 0 0 0 58000000.000000 
EX 0 999 1 0 1 0
FR 0 1 0 0 144.200 0
RP 0 1 1 1000 85.00 90.00 0 0
EN