CM No comments specified
CE
GW 1 7 0.395 0.292 0.000 0.030 0.292 0.000 0.005385107643752864
GW 999 1 0.030 0.292 0.000 -0.022 0.292 0.000 0.005385107643752864
GW 1 7 -0.022 0.292 0.000 -0.395 0.292 0.000 0.005385107643752864
GW 2 3 -0.395 0.162 0.000 -0.395 0.292 0.000 0.005385107643752864
GW 3 3 0.395 0.162 0.000 0.395 0.292 0.000 0.005385107643752864
GW 4 16 0.395 0.000 0.000 -0.395 0.000 0.000 0.005385107643752864
GW 5 3 -0.395 0.000 0.000 -0.395 0.125 0.000 0.005385107643752864
GW 6 3 0.395 0.000 0.000 0.395 0.125 0.000 0.005385107643752864
GM 0 0 0 0 0 0 0 8.000
GE 1
GN 2 0 0 0 11.000 0.010 
EK
LD 5 0 0 0 58000000.000000 
EX 0 999 1 0 1 0
FR 0 1 0 0 144.200 0
RP 0 1 1 1000 87.00 90.00 0 0
EN