CM No comments specified
CE
GW 1 1 0.075 0.000 0.000 0.074 0.013 0.002 0.001
GW 1 1 0.074 0.013 0.002 0.070 0.026 0.004 0.001
GW 1 1 0.070 0.026 0.004 0.065 0.037 0.006 0.001
GW 1 1 0.065 0.037 0.006 0.057 0.048 0.007 0.001
GW 1 1 0.057 0.048 0.007 0.048 0.057 0.009 0.001
GW 1 1 0.048 0.057 0.009 0.037 0.065 0.011 0.001
GW 1 1 0.037 0.065 0.011 0.026 0.070 0.013 0.001
GW 1 1 0.026 0.070 0.013 0.013 0.074 0.015 0.001
GW 1 1 0.013 0.074 0.015 0.000 0.075 0.017 0.001
GW 1 1 0.000 0.075 0.017 -0.013 0.074 0.019 0.001
GW 1 1 -0.013 0.074 0.019 -0.026 0.070 0.020 0.001
GW 1 1 -0.026 0.070 0.020 -0.037 0.065 0.022 0.001
GW 1 1 -0.037 0.065 0.022 -0.048 0.057 0.024 0.001
GW 1 1 -0.048 0.057 0.024 -0.057 0.048 0.026 0.001
GW 1 1 -0.057 0.048 0.026 -0.065 0.037 0.028 0.001
GW 1 1 -0.065 0.037 0.028 -0.070 0.026 0.030 0.001
GW 1 1 -0.070 0.026 0.030 -0.074 0.013 0.031 0.001
GW 1 1 -0.074 0.013 0.031 -0.075 0.000 0.033 0.001
GW 1 1 -0.075 0.000 0.033 -0.074 -0.013 0.035 0.001
GW 1 1 -0.074 -0.013 0.035 -0.070 -0.026 0.037 0.001
GW 1 1 -0.070 -0.026 0.037 -0.065 -0.037 0.039 0.001
GW 1 1 -0.065 -0.037 0.039 -0.057 -0.048 0.041 0.001
GW 1 1 -0.057 -0.048 0.041 -0.048 -0.057 0.043 0.001
GW 1 1 -0.048 -0.057 0.043 -0.037 -0.065 0.044 0.001
GW 1 1 -0.037 -0.065 0.044 -0.026 -0.070 0.046 0.001
GW 1 1 -0.026 -0.070 0.046 -0.013 -0.074 0.048 0.001
GW 1 1 -0.013 -0.074 0.048 -0.000 -0.075 0.050 0.001
GW 1 1 -0.000 -0.075 0.050 0.013 -0.074 0.052 0.001
GW 1 1 0.013 -0.074 0.052 0.026 -0.070 0.054 0.001
GW 1 1 0.026 -0.070 0.054 0.037 -0.065 0.056 0.001
GW 1 1 0.037 -0.065 0.056 0.048 -0.057 0.057 0.001
GW 1 1 0.048 -0.057 0.057 0.057 -0.048 0.059 0.001
GW 1 1 0.057 -0.048 0.059 0.065 -0.037 0.061 0.001
GW 1 1 0.065 -0.037 0.061 0.070 -0.026 0.063 0.001
GW 1 1 0.070 -0.026 0.063 0.074 -0.013 0.065 0.001
GW 1 1 0.074 -0.013 0.065 0.075 -0.000 0.067 0.001
GW 1 1 0.075 -0.000 0.067 0.074 0.013 0.069 0.001
GW 1 1 0.074 0.013 0.069 0.070 0.026 0.070 0.001
GW 1 1 0.070 0.026 0.070 0.065 0.037 0.072 0.001
GW 1 1 0.065 0.037 0.072 0.057 0.048 0.074 0.001
GW 1 1 0.057 0.048 0.074 0.048 0.057 0.076 0.001
GW 1 1 0.048 0.057 0.076 0.037 0.065 0.078 0.001
GW 1 1 0.037 0.065 0.078 0.026 0.070 0.080 0.001
GW 1 1 0.026 0.070 0.080 0.013 0.074 0.082 0.001
GW 1 1 0.013 0.074 0.082 0.000 0.075 0.083 0.001
GW 1 1 0.000 0.075 0.083 -0.013 0.074 0.085 0.001
GW 1 1 -0.013 0.074 0.085 -0.026 0.070 0.087 0.001
GW 1 1 -0.026 0.070 0.087 -0.037 0.065 0.089 0.001
GW 1 1 -0.037 0.065 0.089 -0.048 0.057 0.091 0.001
GW 1 1 -0.048 0.057 0.091 -0.057 0.048 0.093 0.001
GW 1 1 -0.057 0.048 0.093 -0.065 0.037 0.094 0.001
GW 1 1 -0.065 0.037 0.094 -0.070 0.026 0.096 0.001
GW 1 1 -0.070 0.026 0.096 -0.074 0.013 0.098 0.001
GW 1 1 -0.074 0.013 0.098 -0.075 0.000 0.100 0.001
GW 1 1 -0.075 0.000 0.100 -0.074 -0.013 0.102 0.001
GW 1 1 -0.074 -0.013 0.102 -0.070 -0.026 0.104 0.001
GW 1 1 -0.070 -0.026 0.104 -0.065 -0.037 0.106 0.001
GW 1 1 -0.065 -0.037 0.106 -0.057 -0.048 0.107 0.001
GW 1 1 -0.057 -0.048 0.107 -0.048 -0.057 0.109 0.001
GW 1 1 -0.048 -0.057 0.109 -0.037 -0.065 0.111 0.001
GW 1 1 -0.037 -0.065 0.111 -0.026 -0.070 0.113 0.001
GW 1 1 -0.026 -0.070 0.113 -0.013 -0.074 0.115 0.001
GW 1 1 -0.013 -0.074 0.115 -0.000 -0.075 0.117 0.001
GW 1 1 -0.000 -0.075 0.117 0.013 -0.074 0.119 0.001
GW 1 1 0.013 -0.074 0.119 0.026 -0.070 0.120 0.001
GW 1 1 0.026 -0.070 0.120 0.037 -0.065 0.122 0.001
GW 1 1 0.037 -0.065 0.122 0.048 -0.057 0.124 0.001
GW 1 1 0.048 -0.057 0.124 0.057 -0.048 0.126 0.001
GW 1 1 0.057 -0.048 0.126 0.065 -0.037 0.128 0.001
GW 1 1 0.065 -0.037 0.128 0.070 -0.026 0.130 0.001
GW 1 1 0.070 -0.026 0.130 0.074 -0.013 0.132 0.001
GW 1 1 0.074 -0.013 0.132 0.075 -0.000 0.133 0.001
GW 999 1 0.071 0.000 0.069 0.070 0.007 0.069 0.001
GW 4 1 0.070 0.007 0.069 0.068 0.014 0.069 0.001
GW 4 1 0.068 0.014 0.069 0.065 0.020 0.069 0.001
GW 4 1 0.065 0.020 0.069 0.061 0.026 0.069 0.001
GW 4 1 0.061 0.026 0.069 0.056 0.031 0.069 0.001
GW 4 1 0.056 0.031 0.069 0.050 0.035 0.069 0.001
GW 4 1 0.050 0.035 0.069 0.044 0.038 0.069 0.001
GW 4 1 0.044 0.038 0.069 0.037 0.040 0.069 0.001
GW 4 1 0.037 0.040 0.069 0.030 0.041 0.069 0.001
GW 4 1 0.030 0.041 0.069 0.023 0.040 0.069 0.001
GW 4 1 0.023 0.040 0.069 0.016 0.038 0.069 0.001
GW 4 1 0.016 0.038 0.069 0.010 0.035 0.069 0.001
GW 4 1 0.010 0.035 0.069 0.004 0.031 0.069 0.001
GW 4 1 0.004 0.031 0.069 -0.001 0.026 0.069 0.001
GW 4 1 -0.001 0.026 0.069 -0.005 0.020 0.069 0.001
GW 4 1 -0.005 0.020 0.069 -0.008 0.014 0.069 0.001
GW 4 1 -0.008 0.014 0.069 -0.010 0.007 0.069 0.001
GW 4 1 -0.010 0.007 0.069 -0.011 0.000 0.069 0.001
GW 4 1 -0.011 0.000 0.069 -0.010 -0.007 0.069 0.001
GW 4 1 -0.010 -0.007 0.069 -0.008 -0.014 0.069 0.001
GW 4 1 -0.008 -0.014 0.069 -0.005 -0.020 0.069 0.001
GW 4 1 -0.005 -0.020 0.069 -0.001 -0.026 0.069 0.001
GW 4 1 -0.001 -0.026 0.069 0.004 -0.031 0.069 0.001
GW 4 1 0.004 -0.031 0.069 0.010 -0.035 0.069 0.001
GW 4 1 0.010 -0.035 0.069 0.016 -0.038 0.069 0.001
GW 4 1 0.016 -0.038 0.069 0.023 -0.040 0.069 0.001
GW 4 1 0.023 -0.040 0.069 0.030 -0.041 0.069 0.001
GW 4 1 0.030 -0.041 0.069 0.037 -0.040 0.069 0.001
GW 4 1 0.037 -0.040 0.069 0.044 -0.038 0.069 0.001
GW 4 1 0.044 -0.038 0.069 0.050 -0.035 0.069 0.001
GW 4 1 0.050 -0.035 0.069 0.056 -0.031 0.069 0.001
GW 4 1 0.056 -0.031 0.069 0.061 -0.026 0.069 0.001
GW 4 1 0.061 -0.026 0.069 0.065 -0.020 0.069 0.001
GW 4 1 0.065 -0.020 0.069 0.068 -0.014 0.069 0.001
GW 4 1 0.068 -0.014 0.069 0.070 -0.007 0.069 0.001
GW 4 1 0.070 -0.007 0.069 0.071 -0.000 0.069 0.001
GW 2 1 0.075 0.000 0.253 0.074 -0.013 0.255 0.001
GW 2 1 0.074 -0.013 0.255 0.070 -0.026 0.257 0.001
GW 2 1 0.070 -0.026 0.257 0.065 -0.037 0.259 0.001
GW 2 1 0.065 -0.037 0.259 0.057 -0.048 0.261 0.001
GW 2 1 0.057 -0.048 0.261 0.048 -0.057 0.263 0.001
GW 2 1 0.048 -0.057 0.263 0.037 -0.065 0.265 0.001
GW 2 1 0.037 -0.065 0.265 0.026 -0.070 0.266 0.001
GW 2 1 0.026 -0.070 0.266 0.013 -0.074 0.268 0.001
GW 2 1 0.013 -0.074 0.268 0.000 -0.075 0.270 0.001
GW 2 1 0.000 -0.075 0.270 -0.013 -0.074 0.272 0.001
GW 2 1 -0.013 -0.074 0.272 -0.026 -0.070 0.274 0.001
GW 2 1 -0.026 -0.070 0.274 -0.037 -0.065 0.276 0.001
GW 2 1 -0.037 -0.065 0.276 -0.048 -0.057 0.277 0.001
GW 2 1 -0.048 -0.057 0.277 -0.057 -0.048 0.279 0.001
GW 2 1 -0.057 -0.048 0.279 -0.065 -0.037 0.281 0.001
GW 2 1 -0.065 -0.037 0.281 -0.070 -0.026 0.283 0.001
GW 2 1 -0.070 -0.026 0.283 -0.074 -0.013 0.285 0.001
GW 2 1 -0.074 -0.013 0.285 -0.075 -0.000 0.287 0.001
GW 2 1 -0.075 -0.000 0.287 -0.074 0.013 0.289 0.001
GW 2 1 -0.074 0.013 0.289 -0.070 0.026 0.290 0.001
GW 2 1 -0.070 0.026 0.290 -0.065 0.037 0.292 0.001
GW 2 1 -0.065 0.037 0.292 -0.057 0.048 0.294 0.001
GW 2 1 -0.057 0.048 0.294 -0.048 0.057 0.296 0.001
GW 2 1 -0.048 0.057 0.296 -0.037 0.065 0.298 0.001
GW 2 1 -0.037 0.065 0.298 -0.026 0.070 0.300 0.001
GW 2 1 -0.026 0.070 0.300 -0.013 0.074 0.302 0.001
GW 2 1 -0.013 0.074 0.302 -0.000 0.075 0.303 0.001
GW 2 1 -0.000 0.075 0.303 0.013 0.074 0.305 0.001
GW 2 1 0.013 0.074 0.305 0.026 0.070 0.307 0.001
GW 2 1 0.026 0.070 0.307 0.037 0.065 0.309 0.001
GW 2 1 0.037 0.065 0.309 0.048 0.057 0.311 0.001
GW 2 1 0.048 0.057 0.311 0.057 0.048 0.313 0.001
GW 2 1 0.057 0.048 0.313 0.065 0.037 0.315 0.001
GW 2 1 0.065 0.037 0.315 0.070 0.026 0.316 0.001
GW 2 1 0.070 0.026 0.316 0.074 0.013 0.318 0.001
GW 2 1 0.074 0.013 0.318 0.075 0.000 0.320 0.001
GW 2 1 0.075 0.000 0.320 0.074 -0.013 0.322 0.001
GW 2 1 0.074 -0.013 0.322 0.070 -0.026 0.324 0.001
GW 2 1 0.070 -0.026 0.324 0.065 -0.037 0.326 0.001
GW 2 1 0.065 -0.037 0.326 0.057 -0.048 0.328 0.001
GW 2 1 0.057 -0.048 0.328 0.048 -0.057 0.329 0.001
GW 2 1 0.048 -0.057 0.329 0.037 -0.065 0.331 0.001
GW 2 1 0.037 -0.065 0.331 0.026 -0.070 0.333 0.001
GW 2 1 0.026 -0.070 0.333 0.013 -0.074 0.335 0.001
GW 2 1 0.013 -0.074 0.335 0.000 -0.075 0.337 0.001
GW 2 1 0.000 -0.075 0.337 -0.013 -0.074 0.339 0.001
GW 2 1 -0.013 -0.074 0.339 -0.026 -0.070 0.340 0.001
GW 2 1 -0.026 -0.070 0.340 -0.037 -0.065 0.342 0.001
GW 2 1 -0.037 -0.065 0.342 -0.048 -0.057 0.344 0.001
GW 2 1 -0.048 -0.057 0.344 -0.057 -0.048 0.346 0.001
GW 2 1 -0.057 -0.048 0.346 -0.065 -0.037 0.348 0.001
GW 2 1 -0.065 -0.037 0.348 -0.070 -0.026 0.350 0.001
GW 2 1 -0.070 -0.026 0.350 -0.074 -0.013 0.352 0.001
GW 2 1 -0.074 -0.013 0.352 -0.075 -0.000 0.353 0.001
GW 2 1 -0.075 -0.000 0.353 -0.074 0.013 0.355 0.001
GW 2 1 -0.074 0.013 0.355 -0.070 0.026 0.357 0.001
GW 2 1 -0.070 0.026 0.357 -0.065 0.037 0.359 0.001
GW 2 1 -0.065 0.037 0.359 -0.057 0.048 0.361 0.001
GW 2 1 -0.057 0.048 0.361 -0.048 0.057 0.363 0.001
GW 2 1 -0.048 0.057 0.363 -0.037 0.065 0.365 0.001
GW 2 1 -0.037 0.065 0.365 -0.026 0.070 0.366 0.001
GW 2 1 -0.026 0.070 0.366 -0.013 0.074 0.368 0.001
GW 2 1 -0.013 0.074 0.368 -0.000 0.075 0.370 0.001
GW 2 1 -0.000 0.075 0.370 0.013 0.074 0.372 0.001
GW 2 1 0.013 0.074 0.372 0.026 0.070 0.374 0.001
GW 2 1 0.026 0.070 0.374 0.037 0.065 0.376 0.001
GW 2 1 0.037 0.065 0.376 0.048 0.057 0.378 0.001
GW 2 1 0.048 0.057 0.378 0.057 0.048 0.379 0.001
GW 2 1 0.057 0.048 0.379 0.065 0.037 0.381 0.001
GW 2 1 0.065 0.037 0.381 0.070 0.026 0.383 0.001
GW 2 1 0.070 0.026 0.383 0.074 0.013 0.385 0.001
GW 2 1 0.074 0.013 0.385 0.075 0.000 0.387 0.001
GW 3 2 0.075 -0.000 0.133 0.075 0.000 0.253 0.001
GM 0 0 0 0 0 0 0 8.000
GE 1
GN 2 0 0 0 11.000 0.010 
EK
LD 5 0 0 0 58000000.000000 
EX 0 999 1 0 1 0
FR 0 1 0 0 144.200 0
RP 0 1 1 1000 87 90 0 0
EN