CM No comments specified
CE
GW 1 2 0.14 0.0 0.12 0.026005547850208043 0.0 0.12 0.0005
GW 999 1 0.026005547850208043 0.0 0.12 -0.026005547850208043 0.0 0.12 0.0005
GW 1 2 -0.026005547850208043 0.0 0.12 -0.14 0.0 0.12 0.0005
GW 2 23 -0.14 0 -0.6000000000000001 -0.14 0 0.6000000000000001 0.0005
GW 2 23 0.14 0 -0.6000000000000001 0.14 0 0.6000000000000001 0.0005
GW 2 5 -0.14 0 -0.6000000000000001 0.14 0 -0.6000000000000001 0.0005
GW 2 5 -0.14 0 0.6000000000000001 0.14 0 0.6000000000000001 0.0005
GM 0 0 0 0 0 0 0 8.000
GE 1
GN 2 0 0 0 11.000 0.010 
LD 5 0 0 0 58000000.000000 
EX 0 999 1 0 1 0
FR 0 1 0 0 144.200 0
RP 0 1 1 1000 85 0 0 0
EN