CM No comments specified
CE
GW 9 2 0.140 0.000 -0.385 0.026 0.000 -0.385 0.003
GW 999 1 0.026 0.000 -0.385 -0.026 0.000 -0.385 0.003
GW 9 2 -0.026 0.000 -0.385 -0.140 0.000 -0.385 0.003
GW 11 17 0.140 0.000 -0.385 0.140 0.000 0.505 0.003
GW 11 17 -0.140 0.000 -0.385 -0.140 0.000 0.505 0.003
GW 10 2 -0.140 0.000 -0.505 -0.140 0.000 -0.385 0.003
GW 10 2 0.140 0.000 -0.505 0.140 0.000 -0.385 0.003
GW 10 5 -0.140 0.000 -0.505 0.140 0.000 -0.505 0.003
GW 10 5 -0.140 0.000 0.505 0.140 0.000 0.505 0.003
GM 0 0 0 0 0 0 0 8.000
GE 1
GN 2 0 0 0 11.000 0.010 
LD 5 0 0 0 58000000.000000 
EX 0 999 1 0 1 0
FR 0 1 0 0 144.200 0
RP 0 1 1 1000 85 90 0 0
EN