CM No comments specified
CE
GW 1 1 0.076 0.000 0.000 0.074 0.013 0.002 0.001
GW 1 1 0.074 0.013 0.002 0.071 0.026 0.004 0.001
GW 1 1 0.071 0.026 0.004 0.065 0.038 0.005 0.001
GW 1 1 0.065 0.038 0.005 0.058 0.049 0.007 0.001
GW 1 1 0.058 0.049 0.007 0.049 0.058 0.009 0.001
GW 1 1 0.049 0.058 0.009 0.038 0.065 0.011 0.001
GW 1 1 0.038 0.065 0.011 0.026 0.071 0.013 0.001
GW 1 1 0.026 0.071 0.013 0.013 0.074 0.014 0.001
GW 1 1 0.013 0.074 0.014 0.000 0.076 0.016 0.001
GW 1 1 0.000 0.076 0.016 -0.013 0.074 0.018 0.001
GW 1 1 -0.013 0.074 0.018 -0.026 0.071 0.020 0.001
GW 1 1 -0.026 0.071 0.020 -0.038 0.065 0.022 0.001
GW 1 1 -0.038 0.065 0.022 -0.049 0.058 0.024 0.001
GW 1 1 -0.049 0.058 0.024 -0.058 0.049 0.025 0.001
GW 1 1 -0.058 0.049 0.025 -0.065 0.038 0.027 0.001
GW 1 1 -0.065 0.038 0.027 -0.071 0.026 0.029 0.001
GW 1 1 -0.071 0.026 0.029 -0.074 0.013 0.031 0.001
GW 1 1 -0.074 0.013 0.031 -0.076 0.000 0.033 0.001
GW 1 1 -0.076 0.000 0.033 -0.074 -0.013 0.034 0.001
GW 1 1 -0.074 -0.013 0.034 -0.071 -0.026 0.036 0.001
GW 1 1 -0.071 -0.026 0.036 -0.065 -0.038 0.038 0.001
GW 1 1 -0.065 -0.038 0.038 -0.058 -0.049 0.040 0.001
GW 1 1 -0.058 -0.049 0.040 -0.049 -0.058 0.042 0.001
GW 1 1 -0.049 -0.058 0.042 -0.038 -0.065 0.043 0.001
GW 1 1 -0.038 -0.065 0.043 -0.026 -0.071 0.045 0.001
GW 1 1 -0.026 -0.071 0.045 -0.013 -0.074 0.047 0.001
GW 1 1 -0.013 -0.074 0.047 -0.000 -0.076 0.049 0.001
GW 1 1 -0.000 -0.076 0.049 0.013 -0.074 0.051 0.001
GW 1 1 0.013 -0.074 0.051 0.026 -0.071 0.052 0.001
GW 1 1 0.026 -0.071 0.052 0.038 -0.065 0.054 0.001
GW 1 1 0.038 -0.065 0.054 0.049 -0.058 0.056 0.001
GW 1 1 0.049 -0.058 0.056 0.058 -0.049 0.058 0.001
GW 1 1 0.058 -0.049 0.058 0.065 -0.038 0.060 0.001
GW 1 1 0.065 -0.038 0.060 0.071 -0.026 0.061 0.001
GW 1 1 0.071 -0.026 0.061 0.074 -0.013 0.063 0.001
GW 1 1 0.074 -0.013 0.063 0.076 -0.000 0.065 0.001
GW 1 1 0.076 -0.000 0.065 0.074 0.013 0.067 0.001
GW 1 1 0.074 0.013 0.067 0.071 0.026 0.069 0.001
GW 1 1 0.071 0.026 0.069 0.065 0.038 0.071 0.001
GW 1 1 0.065 0.038 0.071 0.058 0.049 0.072 0.001
GW 1 1 0.058 0.049 0.072 0.049 0.058 0.074 0.001
GW 1 1 0.049 0.058 0.074 0.038 0.065 0.076 0.001
GW 1 1 0.038 0.065 0.076 0.026 0.071 0.078 0.001
GW 1 1 0.026 0.071 0.078 0.013 0.074 0.080 0.001
GW 1 1 0.013 0.074 0.080 0.000 0.076 0.081 0.001
GW 1 1 0.000 0.076 0.081 -0.013 0.074 0.083 0.001
GW 1 1 -0.013 0.074 0.083 -0.026 0.071 0.085 0.001
GW 1 1 -0.026 0.071 0.085 -0.038 0.065 0.087 0.001
GW 1 1 -0.038 0.065 0.087 -0.049 0.058 0.089 0.001
GW 1 1 -0.049 0.058 0.089 -0.058 0.049 0.090 0.001
GW 1 1 -0.058 0.049 0.090 -0.065 0.038 0.092 0.001
GW 1 1 -0.065 0.038 0.092 -0.071 0.026 0.094 0.001
GW 1 1 -0.071 0.026 0.094 -0.074 0.013 0.096 0.001
GW 1 1 -0.074 0.013 0.096 -0.076 0.000 0.098 0.001
GW 1 1 -0.076 0.000 0.098 -0.074 -0.013 0.099 0.001
GW 1 1 -0.074 -0.013 0.099 -0.071 -0.026 0.101 0.001
GW 1 1 -0.071 -0.026 0.101 -0.065 -0.038 0.103 0.001
GW 1 1 -0.065 -0.038 0.103 -0.058 -0.049 0.105 0.001
GW 1 1 -0.058 -0.049 0.105 -0.049 -0.058 0.107 0.001
GW 1 1 -0.049 -0.058 0.107 -0.038 -0.065 0.109 0.001
GW 1 1 -0.038 -0.065 0.109 -0.026 -0.071 0.110 0.001
GW 1 1 -0.026 -0.071 0.110 -0.013 -0.074 0.112 0.001
GW 1 1 -0.013 -0.074 0.112 -0.000 -0.076 0.114 0.001
GW 1 1 -0.000 -0.076 0.114 0.013 -0.074 0.116 0.001
GW 1 1 0.013 -0.074 0.116 0.026 -0.071 0.118 0.001
GW 1 1 0.026 -0.071 0.118 0.038 -0.065 0.119 0.001
GW 1 1 0.038 -0.065 0.119 0.049 -0.058 0.121 0.001
GW 1 1 0.049 -0.058 0.121 0.058 -0.049 0.123 0.001
GW 1 1 0.058 -0.049 0.123 0.065 -0.038 0.125 0.001
GW 1 1 0.065 -0.038 0.125 0.071 -0.026 0.127 0.001
GW 1 1 0.071 -0.026 0.127 0.074 -0.013 0.128 0.001
GW 1 1 0.074 -0.013 0.128 0.076 -0.000 0.130 0.001
GW 999 1 0.071 0.000 0.066 0.071 0.007 0.066 0.001
GW 4 1 0.071 0.007 0.066 0.069 0.014 0.066 0.001
GW 4 1 0.069 0.014 0.066 0.066 0.020 0.066 0.001
GW 4 1 0.066 0.020 0.066 0.062 0.026 0.066 0.001
GW 4 1 0.062 0.026 0.066 0.057 0.031 0.066 0.001
GW 4 1 0.057 0.031 0.066 0.051 0.035 0.066 0.001
GW 4 1 0.051 0.035 0.066 0.045 0.038 0.066 0.001
GW 4 1 0.045 0.038 0.066 0.038 0.040 0.066 0.001
GW 4 1 0.038 0.040 0.066 0.031 0.040 0.066 0.001
GW 4 1 0.031 0.040 0.066 0.024 0.040 0.066 0.001
GW 4 1 0.024 0.040 0.066 0.017 0.038 0.066 0.001
GW 4 1 0.017 0.038 0.066 0.011 0.035 0.066 0.001
GW 4 1 0.011 0.035 0.066 0.005 0.031 0.066 0.001
GW 4 1 0.005 0.031 0.066 0.000 0.026 0.066 0.001
GW 4 1 0.000 0.026 0.066 -0.004 0.020 0.066 0.001
GW 4 1 -0.004 0.020 0.066 -0.007 0.014 0.066 0.001
GW 4 1 -0.007 0.014 0.066 -0.008 0.007 0.066 0.001
GW 4 1 -0.008 0.007 0.066 -0.009 0.000 0.066 0.001
GW 4 1 -0.009 0.000 0.066 -0.008 -0.007 0.066 0.001
GW 4 1 -0.008 -0.007 0.066 -0.007 -0.014 0.066 0.001
GW 4 1 -0.007 -0.014 0.066 -0.004 -0.020 0.066 0.001
GW 4 1 -0.004 -0.020 0.066 0.000 -0.026 0.066 0.001
GW 4 1 0.000 -0.026 0.066 0.005 -0.031 0.066 0.001
GW 4 1 0.005 -0.031 0.066 0.011 -0.035 0.066 0.001
GW 4 1 0.011 -0.035 0.066 0.017 -0.038 0.066 0.001
GW 4 1 0.017 -0.038 0.066 0.024 -0.040 0.066 0.001
GW 4 1 0.024 -0.040 0.066 0.031 -0.040 0.066 0.001
GW 4 1 0.031 -0.040 0.066 0.038 -0.040 0.066 0.001
GW 4 1 0.038 -0.040 0.066 0.045 -0.038 0.066 0.001
GW 4 1 0.045 -0.038 0.066 0.051 -0.035 0.066 0.001
GW 4 1 0.051 -0.035 0.066 0.057 -0.031 0.066 0.001
GW 4 1 0.057 -0.031 0.066 0.062 -0.026 0.066 0.001
GW 4 1 0.062 -0.026 0.066 0.066 -0.020 0.066 0.001
GW 4 1 0.066 -0.020 0.066 0.069 -0.014 0.066 0.001
GW 4 1 0.069 -0.014 0.066 0.071 -0.007 0.066 0.001
GW 4 1 0.071 -0.007 0.066 0.071 -0.000 0.066 0.001
GW 2 1 0.076 0.000 0.251 0.074 -0.013 0.253 0.001
GW 2 1 0.074 -0.013 0.253 0.071 -0.026 0.255 0.001
GW 2 1 0.071 -0.026 0.255 0.065 -0.038 0.257 0.001
GW 2 1 0.065 -0.038 0.257 0.058 -0.049 0.258 0.001
GW 2 1 0.058 -0.049 0.258 0.049 -0.058 0.260 0.001
GW 2 1 0.049 -0.058 0.260 0.038 -0.065 0.262 0.001
GW 2 1 0.038 -0.065 0.262 0.026 -0.071 0.264 0.001
GW 2 1 0.026 -0.071 0.264 0.013 -0.074 0.266 0.001
GW 2 1 0.013 -0.074 0.266 0.000 -0.076 0.267 0.001
GW 2 1 0.000 -0.076 0.267 -0.013 -0.074 0.269 0.001
GW 2 1 -0.013 -0.074 0.269 -0.026 -0.071 0.271 0.001
GW 2 1 -0.026 -0.071 0.271 -0.038 -0.065 0.273 0.001
GW 2 1 -0.038 -0.065 0.273 -0.049 -0.058 0.275 0.001
GW 2 1 -0.049 -0.058 0.275 -0.058 -0.049 0.276 0.001
GW 2 1 -0.058 -0.049 0.276 -0.065 -0.038 0.278 0.001
GW 2 1 -0.065 -0.038 0.278 -0.071 -0.026 0.280 0.001
GW 2 1 -0.071 -0.026 0.280 -0.074 -0.013 0.282 0.001
GW 2 1 -0.074 -0.013 0.282 -0.076 -0.000 0.284 0.001
GW 2 1 -0.076 -0.000 0.284 -0.074 0.013 0.285 0.001
GW 2 1 -0.074 0.013 0.285 -0.071 0.026 0.287 0.001
GW 2 1 -0.071 0.026 0.287 -0.065 0.038 0.289 0.001
GW 2 1 -0.065 0.038 0.289 -0.058 0.049 0.291 0.001
GW 2 1 -0.058 0.049 0.291 -0.049 0.058 0.293 0.001
GW 2 1 -0.049 0.058 0.293 -0.038 0.065 0.295 0.001
GW 2 1 -0.038 0.065 0.295 -0.026 0.071 0.296 0.001
GW 2 1 -0.026 0.071 0.296 -0.013 0.074 0.298 0.001
GW 2 1 -0.013 0.074 0.298 -0.000 0.076 0.300 0.001
GW 2 1 -0.000 0.076 0.300 0.013 0.074 0.302 0.001
GW 2 1 0.013 0.074 0.302 0.026 0.071 0.304 0.001
GW 2 1 0.026 0.071 0.304 0.038 0.065 0.305 0.001
GW 2 1 0.038 0.065 0.305 0.049 0.058 0.307 0.001
GW 2 1 0.049 0.058 0.307 0.058 0.049 0.309 0.001
GW 2 1 0.058 0.049 0.309 0.065 0.038 0.311 0.001
GW 2 1 0.065 0.038 0.311 0.071 0.026 0.313 0.001
GW 2 1 0.071 0.026 0.313 0.074 0.013 0.314 0.001
GW 2 1 0.074 0.013 0.314 0.076 0.000 0.316 0.001
GW 2 1 0.076 0.000 0.316 0.074 -0.013 0.318 0.001
GW 2 1 0.074 -0.013 0.318 0.071 -0.026 0.320 0.001
GW 2 1 0.071 -0.026 0.320 0.065 -0.038 0.322 0.001
GW 2 1 0.065 -0.038 0.322 0.058 -0.049 0.323 0.001
GW 2 1 0.058 -0.049 0.323 0.049 -0.058 0.325 0.001
GW 2 1 0.049 -0.058 0.325 0.038 -0.065 0.327 0.001
GW 2 1 0.038 -0.065 0.327 0.026 -0.071 0.329 0.001
GW 2 1 0.026 -0.071 0.329 0.013 -0.074 0.331 0.001
GW 2 1 0.013 -0.074 0.331 0.000 -0.076 0.333 0.001
GW 2 1 0.000 -0.076 0.333 -0.013 -0.074 0.334 0.001
GW 2 1 -0.013 -0.074 0.334 -0.026 -0.071 0.336 0.001
GW 2 1 -0.026 -0.071 0.336 -0.038 -0.065 0.338 0.001
GW 2 1 -0.038 -0.065 0.338 -0.049 -0.058 0.340 0.001
GW 2 1 -0.049 -0.058 0.340 -0.058 -0.049 0.342 0.001
GW 2 1 -0.058 -0.049 0.342 -0.065 -0.038 0.343 0.001
GW 2 1 -0.065 -0.038 0.343 -0.071 -0.026 0.345 0.001
GW 2 1 -0.071 -0.026 0.345 -0.074 -0.013 0.347 0.001
GW 2 1 -0.074 -0.013 0.347 -0.076 -0.000 0.349 0.001
GW 2 1 -0.076 -0.000 0.349 -0.074 0.013 0.351 0.001
GW 2 1 -0.074 0.013 0.351 -0.071 0.026 0.352 0.001
GW 2 1 -0.071 0.026 0.352 -0.065 0.038 0.354 0.001
GW 2 1 -0.065 0.038 0.354 -0.058 0.049 0.356 0.001
GW 2 1 -0.058 0.049 0.356 -0.049 0.058 0.358 0.001
GW 2 1 -0.049 0.058 0.358 -0.038 0.065 0.360 0.001
GW 2 1 -0.038 0.065 0.360 -0.026 0.071 0.361 0.001
GW 2 1 -0.026 0.071 0.361 -0.013 0.074 0.363 0.001
GW 2 1 -0.013 0.074 0.363 -0.000 0.076 0.365 0.001
GW 2 1 -0.000 0.076 0.365 0.013 0.074 0.367 0.001
GW 2 1 0.013 0.074 0.367 0.026 0.071 0.369 0.001
GW 2 1 0.026 0.071 0.369 0.038 0.065 0.370 0.001
GW 2 1 0.038 0.065 0.370 0.049 0.058 0.372 0.001
GW 2 1 0.049 0.058 0.372 0.058 0.049 0.374 0.001
GW 2 1 0.058 0.049 0.374 0.065 0.038 0.376 0.001
GW 2 1 0.065 0.038 0.376 0.071 0.026 0.378 0.001
GW 2 1 0.071 0.026 0.378 0.074 0.013 0.380 0.001
GW 2 1 0.074 0.013 0.380 0.076 0.000 0.381 0.001
GW 3 2 0.076 -0.000 0.130 0.076 0.000 0.251 0.001
GM 0 0 0 0 0 0 0 8.000
GE 1
GN 2 0 0 0 11.000 0.010 
EK
LD 5 0 0 0 58000000.000000 
EX 0 999 1 0 1 0
FR 0 1 0 0 144.200 0
RP 0 1 1 1000 87 90 0 0
EN