CM No comments specified
CE
GW 1 9 0.000 0.000 -0.520 0.000 0.000 -0.052 0.005
GW 999 1 0.000 0.000 -0.052 0.000 0.000 0.000 0.005
GW 1 9 0.000 0.000 0.000 0.000 0.000 0.520 0.005
GE 0
EK
LD 5 0 0 0 58000000.000000 
EX 0 999 1 0 1 0
FR 0 1 0 0 144.200 0
RP 0 1 1 1000 90.00 0.00 0 0
EN