CM No comments specified
CE
GW 1 1 0.076 0.000 0.000 0.074 0.013 0.002 0.0010078703745354895
GW 1 1 0.074 0.013 0.002 0.071 0.026 0.004 0.0010078703745354895
GW 1 1 0.071 0.026 0.004 0.065 0.038 0.006 0.0010078703745354895
GW 1 1 0.065 0.038 0.006 0.058 0.049 0.007 0.0010078703745354895
GW 1 1 0.058 0.049 0.007 0.049 0.058 0.009 0.0010078703745354895
GW 1 1 0.049 0.058 0.009 0.038 0.065 0.011 0.0010078703745354895
GW 1 1 0.038 0.065 0.011 0.026 0.071 0.013 0.0010078703745354895
GW 1 1 0.026 0.071 0.013 0.013 0.074 0.015 0.0010078703745354895
GW 1 1 0.013 0.074 0.015 0.000 0.076 0.017 0.0010078703745354895
GW 1 1 0.000 0.076 0.017 -0.013 0.074 0.018 0.0010078703745354895
GW 1 1 -0.013 0.074 0.018 -0.026 0.071 0.020 0.0010078703745354895
GW 1 1 -0.026 0.071 0.020 -0.038 0.065 0.022 0.0010078703745354895
GW 1 1 -0.038 0.065 0.022 -0.049 0.058 0.024 0.0010078703745354895
GW 1 1 -0.049 0.058 0.024 -0.058 0.049 0.026 0.0010078703745354895
GW 1 1 -0.058 0.049 0.026 -0.065 0.038 0.028 0.0010078703745354895
GW 1 1 -0.065 0.038 0.028 -0.071 0.026 0.029 0.0010078703745354895
GW 1 1 -0.071 0.026 0.029 -0.074 0.013 0.031 0.0010078703745354895
GW 1 1 -0.074 0.013 0.031 -0.076 0.000 0.033 0.0010078703745354895
GW 1 1 -0.076 0.000 0.033 -0.074 -0.013 0.035 0.0010078703745354895
GW 1 1 -0.074 -0.013 0.035 -0.071 -0.026 0.037 0.0010078703745354895
GW 1 1 -0.071 -0.026 0.037 -0.065 -0.038 0.039 0.0010078703745354895
GW 1 1 -0.065 -0.038 0.039 -0.058 -0.049 0.040 0.0010078703745354895
GW 1 1 -0.058 -0.049 0.040 -0.049 -0.058 0.042 0.0010078703745354895
GW 1 1 -0.049 -0.058 0.042 -0.038 -0.065 0.044 0.0010078703745354895
GW 1 1 -0.038 -0.065 0.044 -0.026 -0.071 0.046 0.0010078703745354895
GW 1 1 -0.026 -0.071 0.046 -0.013 -0.074 0.048 0.0010078703745354895
GW 1 1 -0.013 -0.074 0.048 -0.000 -0.076 0.050 0.0010078703745354895
GW 1 1 -0.000 -0.076 0.050 0.013 -0.074 0.051 0.0010078703745354895
GW 1 1 0.013 -0.074 0.051 0.026 -0.071 0.053 0.0010078703745354895
GW 1 1 0.026 -0.071 0.053 0.038 -0.065 0.055 0.0010078703745354895
GW 1 1 0.038 -0.065 0.055 0.049 -0.058 0.057 0.0010078703745354895
GW 1 1 0.049 -0.058 0.057 0.058 -0.049 0.059 0.0010078703745354895
GW 1 1 0.058 -0.049 0.059 0.065 -0.038 0.061 0.0010078703745354895
GW 1 1 0.065 -0.038 0.061 0.071 -0.026 0.062 0.0010078703745354895
GW 1 1 0.071 -0.026 0.062 0.074 -0.013 0.064 0.0010078703745354895
GW 1 1 0.074 -0.013 0.064 0.076 -0.000 0.066 0.0010078703745354895
GW 1 1 0.076 -0.000 0.066 0.074 0.013 0.068 0.0010078703745354895
GW 1 1 0.074 0.013 0.068 0.071 0.026 0.070 0.0010078703745354895
GW 1 1 0.071 0.026 0.070 0.065 0.038 0.072 0.0010078703745354895
GW 1 1 0.065 0.038 0.072 0.058 0.049 0.074 0.0010078703745354895
GW 1 1 0.058 0.049 0.074 0.049 0.058 0.075 0.0010078703745354895
GW 1 1 0.049 0.058 0.075 0.038 0.065 0.077 0.0010078703745354895
GW 1 1 0.038 0.065 0.077 0.026 0.071 0.079 0.0010078703745354895
GW 1 1 0.026 0.071 0.079 0.013 0.074 0.081 0.0010078703745354895
GW 1 1 0.013 0.074 0.081 0.000 0.076 0.083 0.0010078703745354895
GW 1 1 0.000 0.076 0.083 -0.013 0.074 0.085 0.0010078703745354895
GW 1 1 -0.013 0.074 0.085 -0.026 0.071 0.086 0.0010078703745354895
GW 1 1 -0.026 0.071 0.086 -0.038 0.065 0.088 0.0010078703745354895
GW 1 1 -0.038 0.065 0.088 -0.049 0.058 0.090 0.0010078703745354895
GW 1 1 -0.049 0.058 0.090 -0.058 0.049 0.092 0.0010078703745354895
GW 1 1 -0.058 0.049 0.092 -0.065 0.038 0.094 0.0010078703745354895
GW 1 1 -0.065 0.038 0.094 -0.071 0.026 0.096 0.0010078703745354895
GW 1 1 -0.071 0.026 0.096 -0.074 0.013 0.097 0.0010078703745354895
GW 1 1 -0.074 0.013 0.097 -0.076 0.000 0.099 0.0010078703745354895
GW 1 1 -0.076 0.000 0.099 -0.074 -0.013 0.101 0.0010078703745354895
GW 1 1 -0.074 -0.013 0.101 -0.071 -0.026 0.103 0.0010078703745354895
GW 1 1 -0.071 -0.026 0.103 -0.065 -0.038 0.105 0.0010078703745354895
GW 1 1 -0.065 -0.038 0.105 -0.058 -0.049 0.107 0.0010078703745354895
GW 1 1 -0.058 -0.049 0.107 -0.049 -0.058 0.108 0.0010078703745354895
GW 1 1 -0.049 -0.058 0.108 -0.038 -0.065 0.110 0.0010078703745354895
GW 1 1 -0.038 -0.065 0.110 -0.026 -0.071 0.112 0.0010078703745354895
GW 1 1 -0.026 -0.071 0.112 -0.013 -0.074 0.114 0.0010078703745354895
GW 1 1 -0.013 -0.074 0.114 -0.000 -0.076 0.116 0.0010078703745354895
GW 1 1 -0.000 -0.076 0.116 0.013 -0.074 0.118 0.0010078703745354895
GW 1 1 0.013 -0.074 0.118 0.026 -0.071 0.119 0.0010078703745354895
GW 1 1 0.026 -0.071 0.119 0.038 -0.065 0.121 0.0010078703745354895
GW 1 1 0.038 -0.065 0.121 0.049 -0.058 0.123 0.0010078703745354895
GW 1 1 0.049 -0.058 0.123 0.058 -0.049 0.125 0.0010078703745354895
GW 1 1 0.058 -0.049 0.125 0.065 -0.038 0.127 0.0010078703745354895
GW 1 1 0.065 -0.038 0.127 0.071 -0.026 0.129 0.0010078703745354895
GW 1 1 0.071 -0.026 0.129 0.074 -0.013 0.130 0.0010078703745354895
GW 1 1 0.074 -0.013 0.130 0.076 -0.000 0.132 0.0010078703745354895
GW 999 1 0.071 0.000 0.064 0.071 0.007 0.064 0.001
GW 4 1 0.071 0.007 0.064 0.069 0.014 0.064 0.001
GW 4 1 0.069 0.014 0.064 0.066 0.020 0.064 0.001
GW 4 1 0.066 0.020 0.064 0.062 0.026 0.064 0.001
GW 4 1 0.062 0.026 0.064 0.057 0.031 0.064 0.001
GW 4 1 0.057 0.031 0.064 0.051 0.035 0.064 0.001
GW 4 1 0.051 0.035 0.064 0.045 0.038 0.064 0.001
GW 4 1 0.045 0.038 0.064 0.038 0.040 0.064 0.001
GW 4 1 0.038 0.040 0.064 0.031 0.041 0.064 0.001
GW 4 1 0.031 0.041 0.064 0.024 0.040 0.064 0.001
GW 4 1 0.024 0.040 0.064 0.017 0.038 0.064 0.001
GW 4 1 0.017 0.038 0.064 0.010 0.035 0.064 0.001
GW 4 1 0.010 0.035 0.064 0.004 0.031 0.064 0.001
GW 4 1 0.004 0.031 0.064 -0.001 0.026 0.064 0.001
GW 4 1 -0.001 0.026 0.064 -0.005 0.020 0.064 0.001
GW 4 1 -0.005 0.020 0.064 -0.008 0.014 0.064 0.001
GW 4 1 -0.008 0.014 0.064 -0.010 0.007 0.064 0.001
GW 4 1 -0.010 0.007 0.064 -0.010 0.000 0.064 0.001
GW 4 1 -0.010 0.000 0.064 -0.010 -0.007 0.064 0.001
GW 4 1 -0.010 -0.007 0.064 -0.008 -0.014 0.064 0.001
GW 4 1 -0.008 -0.014 0.064 -0.005 -0.020 0.064 0.001
GW 4 1 -0.005 -0.020 0.064 -0.001 -0.026 0.064 0.001
GW 4 1 -0.001 -0.026 0.064 0.004 -0.031 0.064 0.001
GW 4 1 0.004 -0.031 0.064 0.010 -0.035 0.064 0.001
GW 4 1 0.010 -0.035 0.064 0.017 -0.038 0.064 0.001
GW 4 1 0.017 -0.038 0.064 0.024 -0.040 0.064 0.001
GW 4 1 0.024 -0.040 0.064 0.031 -0.041 0.064 0.001
GW 4 1 0.031 -0.041 0.064 0.038 -0.040 0.064 0.001
GW 4 1 0.038 -0.040 0.064 0.045 -0.038 0.064 0.001
GW 4 1 0.045 -0.038 0.064 0.051 -0.035 0.064 0.001
GW 4 1 0.051 -0.035 0.064 0.057 -0.031 0.064 0.001
GW 4 1 0.057 -0.031 0.064 0.062 -0.026 0.064 0.001
GW 4 1 0.062 -0.026 0.064 0.066 -0.020 0.064 0.001
GW 4 1 0.066 -0.020 0.064 0.069 -0.014 0.064 0.001
GW 4 1 0.069 -0.014 0.064 0.071 -0.007 0.064 0.001
GW 4 1 0.071 -0.007 0.064 0.071 -0.000 0.064 0.001
GW 2 1 0.076 0.000 0.256 0.074 -0.013 0.258 0.0010078703745354895
GW 2 1 0.074 -0.013 0.258 0.071 -0.026 0.260 0.0010078703745354895
GW 2 1 0.071 -0.026 0.260 0.065 -0.038 0.262 0.0010078703745354895
GW 2 1 0.065 -0.038 0.262 0.058 -0.049 0.264 0.0010078703745354895
GW 2 1 0.058 -0.049 0.264 0.049 -0.058 0.266 0.0010078703745354895
GW 2 1 0.049 -0.058 0.266 0.038 -0.065 0.267 0.0010078703745354895
GW 2 1 0.038 -0.065 0.267 0.026 -0.071 0.269 0.0010078703745354895
GW 2 1 0.026 -0.071 0.269 0.013 -0.074 0.271 0.0010078703745354895
GW 2 1 0.013 -0.074 0.271 0.000 -0.076 0.273 0.0010078703745354895
GW 2 1 0.000 -0.076 0.273 -0.013 -0.074 0.275 0.0010078703745354895
GW 2 1 -0.013 -0.074 0.275 -0.026 -0.071 0.277 0.0010078703745354895
GW 2 1 -0.026 -0.071 0.277 -0.038 -0.065 0.278 0.0010078703745354895
GW 2 1 -0.038 -0.065 0.278 -0.049 -0.058 0.280 0.0010078703745354895
GW 2 1 -0.049 -0.058 0.280 -0.058 -0.049 0.282 0.0010078703745354895
GW 2 1 -0.058 -0.049 0.282 -0.065 -0.038 0.284 0.0010078703745354895
GW 2 1 -0.065 -0.038 0.284 -0.071 -0.026 0.286 0.0010078703745354895
GW 2 1 -0.071 -0.026 0.286 -0.074 -0.013 0.288 0.0010078703745354895
GW 2 1 -0.074 -0.013 0.288 -0.076 -0.000 0.289 0.0010078703745354895
GW 2 1 -0.076 -0.000 0.289 -0.074 0.013 0.291 0.0010078703745354895
GW 2 1 -0.074 0.013 0.291 -0.071 0.026 0.293 0.0010078703745354895
GW 2 1 -0.071 0.026 0.293 -0.065 0.038 0.295 0.0010078703745354895
GW 2 1 -0.065 0.038 0.295 -0.058 0.049 0.297 0.0010078703745354895
GW 2 1 -0.058 0.049 0.297 -0.049 0.058 0.299 0.0010078703745354895
GW 2 1 -0.049 0.058 0.299 -0.038 0.065 0.301 0.0010078703745354895
GW 2 1 -0.038 0.065 0.301 -0.026 0.071 0.302 0.0010078703745354895
GW 2 1 -0.026 0.071 0.302 -0.013 0.074 0.304 0.0010078703745354895
GW 2 1 -0.013 0.074 0.304 -0.000 0.076 0.306 0.0010078703745354895
GW 2 1 -0.000 0.076 0.306 0.013 0.074 0.308 0.0010078703745354895
GW 2 1 0.013 0.074 0.308 0.026 0.071 0.310 0.0010078703745354895
GW 2 1 0.026 0.071 0.310 0.038 0.065 0.312 0.0010078703745354895
GW 2 1 0.038 0.065 0.312 0.049 0.058 0.313 0.0010078703745354895
GW 2 1 0.049 0.058 0.313 0.058 0.049 0.315 0.0010078703745354895
GW 2 1 0.058 0.049 0.315 0.065 0.038 0.317 0.0010078703745354895
GW 2 1 0.065 0.038 0.317 0.071 0.026 0.319 0.0010078703745354895
GW 2 1 0.071 0.026 0.319 0.074 0.013 0.321 0.0010078703745354895
GW 2 1 0.074 0.013 0.321 0.076 0.000 0.323 0.0010078703745354895
GW 2 1 0.076 0.000 0.323 0.074 -0.013 0.324 0.0010078703745354895
GW 2 1 0.074 -0.013 0.324 0.071 -0.026 0.326 0.0010078703745354895
GW 2 1 0.071 -0.026 0.326 0.065 -0.038 0.328 0.0010078703745354895
GW 2 1 0.065 -0.038 0.328 0.058 -0.049 0.330 0.0010078703745354895
GW 2 1 0.058 -0.049 0.330 0.049 -0.058 0.332 0.0010078703745354895
GW 2 1 0.049 -0.058 0.332 0.038 -0.065 0.334 0.0010078703745354895
GW 2 1 0.038 -0.065 0.334 0.026 -0.071 0.335 0.0010078703745354895
GW 2 1 0.026 -0.071 0.335 0.013 -0.074 0.337 0.0010078703745354895
GW 2 1 0.013 -0.074 0.337 0.000 -0.076 0.339 0.0010078703745354895
GW 2 1 0.000 -0.076 0.339 -0.013 -0.074 0.341 0.0010078703745354895
GW 2 1 -0.013 -0.074 0.341 -0.026 -0.071 0.343 0.0010078703745354895
GW 2 1 -0.026 -0.071 0.343 -0.038 -0.065 0.345 0.0010078703745354895
GW 2 1 -0.038 -0.065 0.345 -0.049 -0.058 0.346 0.0010078703745354895
GW 2 1 -0.049 -0.058 0.346 -0.058 -0.049 0.348 0.0010078703745354895
GW 2 1 -0.058 -0.049 0.348 -0.065 -0.038 0.350 0.0010078703745354895
GW 2 1 -0.065 -0.038 0.350 -0.071 -0.026 0.352 0.0010078703745354895
GW 2 1 -0.071 -0.026 0.352 -0.074 -0.013 0.354 0.0010078703745354895
GW 2 1 -0.074 -0.013 0.354 -0.076 -0.000 0.356 0.0010078703745354895
GW 2 1 -0.076 -0.000 0.356 -0.074 0.013 0.357 0.0010078703745354895
GW 2 1 -0.074 0.013 0.357 -0.071 0.026 0.359 0.0010078703745354895
GW 2 1 -0.071 0.026 0.359 -0.065 0.038 0.361 0.0010078703745354895
GW 2 1 -0.065 0.038 0.361 -0.058 0.049 0.363 0.0010078703745354895
GW 2 1 -0.058 0.049 0.363 -0.049 0.058 0.365 0.0010078703745354895
GW 2 1 -0.049 0.058 0.365 -0.038 0.065 0.367 0.0010078703745354895
GW 2 1 -0.038 0.065 0.367 -0.026 0.071 0.369 0.0010078703745354895
GW 2 1 -0.026 0.071 0.369 -0.013 0.074 0.370 0.0010078703745354895
GW 2 1 -0.013 0.074 0.370 -0.000 0.076 0.372 0.0010078703745354895
GW 2 1 -0.000 0.076 0.372 0.013 0.074 0.374 0.0010078703745354895
GW 2 1 0.013 0.074 0.374 0.026 0.071 0.376 0.0010078703745354895
GW 2 1 0.026 0.071 0.376 0.038 0.065 0.378 0.0010078703745354895
GW 2 1 0.038 0.065 0.378 0.049 0.058 0.380 0.0010078703745354895
GW 2 1 0.049 0.058 0.380 0.058 0.049 0.381 0.0010078703745354895
GW 2 1 0.058 0.049 0.381 0.065 0.038 0.383 0.0010078703745354895
GW 2 1 0.065 0.038 0.383 0.071 0.026 0.385 0.0010078703745354895
GW 2 1 0.071 0.026 0.385 0.074 0.013 0.387 0.0010078703745354895
GW 2 1 0.074 0.013 0.387 0.076 0.000 0.389 0.0010078703745354895
GW 3 3 0.076 -0.000 0.132 0.076 0.000 0.256 0.0010078703745354895
GM 0 0 0 0 0 0 0 8.000
GE 1
GN 2 0 0 0 11.000 0.010 
EK
LD 5 0 0 0 58000000.000000 
EX 0 999 1 0 1 0
FR 0 1 0 0 144.200 0
RP 0 1 1 1000 87.00 90.00 0 0
EN