CM No comments specified
CE
GW 1 19 0.471 0.000 0.000 -0.471 0.000 0.000 0.004545195328822109
GW 2 10 0.554 0.221 0.000 0.034 0.221 0.000 0.004545195328822109
GW 999 1 0.034 0.221 0.000 -0.018 0.221 0.000 0.004545195328822109
GW 2 10 -0.018 0.221 0.000 -0.554 0.221 0.000 0.004545195328822109
GW 3 16 0.400 0.350 0.000 -0.400 0.350 0.000 0.004545195328822109
GM 0 0 0 0 0 0 0 8.000
GE 1
GN 2 0 0 0 11.000 0.010 
EK
LD 5 0 0 0 58000000.000000 
EX 0 999 1 0 1 0
FR 0 1 0 0 144.200 0
RP 0 1 1 1000 87.00 90.00 0 0
EN