CM No comments specified
CE
GW 1 20 0.499 0.000 0.000 -0.499 0.000 0.000 0.004065916561618118
GW 2 9 0.497 0.304 0.000 0.029 0.304 0.000 0.004065916561618118
GW 999 1 0.029 0.304 0.000 -0.023 0.304 0.000 0.004065916561618118
GW 2 9 -0.023 0.304 0.000 -0.497 0.304 0.000 0.004065916561618118
GW 3 18 0.445 0.511 0.000 -0.445 0.511 0.000 0.004065916561618118
GM 0 0 0 0 0 0 0 8.000
GE 1
GN 2 0 0 0 11.000 0.010 
EK
LD 5 0 0 0 58000000.000000 
EX 0 999 1 0 1 0
FR 0 1 0 0 144.200 0
RP 0 1 1 1000 87.00 90.00 0 0
EN