CM No comments specified
CE
GW 1 22 0.547 0.000 0.000 -0.547 0.000 0.000 0.003793265411036269
GW 2 10 0.562 0.234 0.000 0.042 0.234 0.000 0.003793265411036269
GW 999 1 0.042 0.234 0.000 -0.010 0.234 0.000 0.003793265411036269
GW 2 10 -0.010 0.234 0.000 -0.562 0.234 0.000 0.003793265411036269
GW 3 24 0.600 0.647 0.000 -0.600 0.647 0.000 0.003793265411036269
GM 0 0 0 0 0 0 0 8.000
GE 1
GN 2 0 0 0 11.000 0.010 
EK
LD 5 0 0 0 58000000.000000 
EX 0 999 1 0 1 0
FR 0 1 0 0 144.200 0
RP 0 1 1 1000 87.00 90.00 0 0
EN