CM No comments specified
CE
GW 1 11 0.0000 0.0000 -0.6000 0.0000 0.0000 -0.0260  0.0005 
GW 999 1 0.0000 0.0000 -0.0260 0.0000 0.0000 0.0260  0.0005 
GW 1 11 0.0000 0.0000 0.0260 0.0000 0.0000 0.6000  0.0005 
GM 0 0 0 0 0 0 0 8.000
GE 1
GN 2 0 0 0 11.000 0.010 
LD 5 0 0 0 58000000.000000 
EX 0 999 1 0 1 0
FR 0 1 0 0 144.200 0
RP 0 1 1 1000 85 0 0 0
EN