GW 2 1 0.100 0.000 0.000 0.098 0.017 0.000 0.005
GW 2 1 0.098 0.017 0.000 0.094 0.034 0.000 0.005
GW 2 1 0.094 0.034 0.000 0.087 0.050 0.000 0.005
GW 2 1 0.087 0.050 0.000 0.077 0.064 0.000 0.005
GW 2 1 0.077 0.064 0.000 0.064 0.077 0.000 0.005
GW 2 1 0.064 0.077 0.000 0.050 0.087 0.000 0.005
GW 2 1 0.050 0.087 0.000 0.034 0.094 0.000 0.005
GW 2 1 0.034 0.094 0.000 0.017 0.098 0.000 0.005
GW 2 1 0.017 0.098 0.000 0.000 0.100 0.000 0.005
GW 2 1 0.000 0.100 0.000 -0.017 0.098 0.000 0.005
GW 2 1 -0.017 0.098 0.000 -0.034 0.094 0.000 0.005
GW 2 1 -0.034 0.094 0.000 -0.050 0.087 0.000 0.005
GW 2 1 -0.050 0.087 0.000 -0.064 0.077 0.000 0.005
GW 2 1 -0.064 0.077 0.000 -0.077 0.064 0.000 0.005
GW 2 1 -0.077 0.064 0.000 -0.087 0.050 0.000 0.005
GW 2 1 -0.087 0.050 0.000 -0.094 0.034 0.000 0.005
GW 2 1 -0.094 0.034 0.000 -0.098 0.017 0.000 0.005
GW 2 1 -0.098 0.017 0.000 -0.100 0.000 0.000 0.005
GW 2 1 -0.100 0.000 0.000 -0.098 -0.017 0.000 0.005
GW 2 1 -0.098 -0.017 0.000 -0.094 -0.034 0.000 0.005
GW 2 1 -0.094 -0.034 0.000 -0.087 -0.050 0.000 0.005
GW 2 1 -0.087 -0.050 0.000 -0.077 -0.064 0.000 0.005
GW 2 1 -0.077 -0.064 0.000 -0.064 -0.077 0.000 0.005
GW 2 1 -0.064 -0.077 0.000 -0.050 -0.087 0.000 0.005
GW 2 1 -0.050 -0.087 0.000 -0.034 -0.094 0.000 0.005
GW 2 1 -0.034 -0.094 0.000 -0.017 -0.098 0.000 0.005
GW 2 1 -0.017 -0.098 0.000 -0.000 -0.100 0.000 0.005
GW 2 1 -0.000 -0.100 0.000 0.017 -0.098 0.000 0.005
GW 2 1 0.017 -0.098 0.000 0.034 -0.094 0.000 0.005
GW 2 1 0.034 -0.094 0.000 0.050 -0.087 0.000 0.005
GW 2 1 0.050 -0.087 0.000 0.064 -0.077 0.000 0.005
GW 2 1 0.064 -0.077 0.000 0.077 -0.064 0.000 0.005
GW 2 1 0.077 -0.064 0.000 0.087 -0.050 0.000 0.005
GW 2 1 0.087 -0.050 0.000 0.094 -0.034 0.000 0.005
GW 2 1 0.094 -0.034 0.000 0.097 -0.024 0.000 0.005
GW 2 1 0.098 -0.017 0.000 0.100 -0.000 0.000 0.005
GW 2 0 0.097 -0.024 0.000 0.098 -0.017 0.000 0.005
GW 1 1 0.100 0.000 0.200 0.098 0.017 0.200 0.005
GW 1 1 0.098 0.017 0.200 0.094 0.034 0.200 0.005
GW 1 1 0.094 0.034 0.200 0.087 0.050 0.200 0.005
GW 1 1 0.087 0.050 0.200 0.077 0.064 0.200 0.005
GW 1 1 0.077 0.064 0.200 0.064 0.077 0.200 0.005
GW 1 1 0.064 0.077 0.200 0.050 0.087 0.200 0.005
GW 1 1 0.050 0.087 0.200 0.034 0.094 0.200 0.005
GW 1 1 0.034 0.094 0.200 0.017 0.098 0.200 0.005
GW 1 1 0.017 0.098 0.200 0.000 0.100 0.200 0.005
GW 1 1 0.000 0.100 0.200 -0.017 0.098 0.200 0.005
GW 1 1 -0.017 0.098 0.200 -0.034 0.094 0.200 0.005
GW 1 1 -0.034 0.094 0.200 -0.050 0.087 0.200 0.005
GW 1 1 -0.050 0.087 0.200 -0.064 0.077 0.200 0.005
GW 1 1 -0.064 0.077 0.200 -0.077 0.064 0.200 0.005
GW 1 1 -0.077 0.064 0.200 -0.087 0.050 0.200 0.005
GW 1 1 -0.087 0.050 0.200 -0.094 0.034 0.200 0.005
GW 1 1 -0.094 0.034 0.200 -0.098 0.017 0.200 0.005
GW 1 1 -0.098 0.017 0.200 -0.100 0.000 0.200 0.005
GW 1 1 -0.100 0.000 0.200 -0.098 -0.017 0.200 0.005
GW 1 1 -0.098 -0.017 0.200 -0.094 -0.034 0.200 0.005
GW 1 1 -0.094 -0.034 0.200 -0.087 -0.050 0.200 0.005
GW 1 1 -0.087 -0.050 0.200 -0.077 -0.064 0.200 0.005
GW 1 1 -0.077 -0.064 0.200 -0.064 -0.077 0.200 0.005
GW 1 1 -0.064 -0.077 0.200 -0.050 -0.087 0.200 0.005
GW 1 1 -0.050 -0.087 0.200 -0.034 -0.094 0.200 0.005
GW 1 1 -0.034 -0.094 0.200 -0.017 -0.098 0.200 0.005
GW 1 1 -0.017 -0.098 0.200 -0.000 -0.100 0.200 0.005
GW 1 1 -0.000 -0.100 0.200 0.017 -0.098 0.200 0.005
GW 1 1 0.017 -0.098 0.200 0.034 -0.094 0.200 0.005
GW 1 1 0.034 -0.094 0.200 0.050 -0.087 0.200 0.005
GW 1 1 0.050 -0.087 0.200 0.064 -0.077 0.200 0.005
GW 1 1 0.064 -0.077 0.200 0.077 -0.064 0.200 0.005
GW 1 1 0.077 -0.064 0.200 0.087 -0.050 0.200 0.005
GW 1 1 0.087 -0.050 0.200 0.094 -0.034 0.200 0.005
GW 1 1 0.094 -0.034 0.200 0.097 -0.024 0.200 0.005
GW 1 1 0.098 -0.017 0.200 0.100 -0.000 0.200 0.005
GW 1 0 0.097 -0.024 0.200 0.098 -0.017 0.200 0.005
GW 3 3 0.100 0.000 0.000 0.100 0.000 0.200 0.005
GW 4 3 0.097 -0.024 0.000 0.097 -0.024 0.200 0.005
GM 0 0 0 0 0 0 0 8.000
GE 1
GN 2 0 0 0 11.000 0.010 
EK
LD 5 0 0 0 58000000.000000 
EX 0 999 1 0 1 0
FR 0 1 0 0 144.200 0
RP 0 1 1 1000 85.00 90.00 0 0
EN