CM No comments specified
CE
GW 1 1 0.080 0.000 0.000 0.079 0.014 0.002 0.004
GW 1 1 0.079 0.014 0.002 0.075 0.027 0.004 0.004
GW 1 1 0.075 0.027 0.004 0.069 0.040 0.007 0.004
GW 1 1 0.069 0.040 0.007 0.061 0.052 0.009 0.004
GW 1 1 0.061 0.052 0.009 0.052 0.061 0.011 0.004
GW 1 1 0.052 0.061 0.011 0.040 0.069 0.013 0.004
GW 1 1 0.040 0.069 0.013 0.027 0.075 0.015 0.004
GW 1 1 0.027 0.075 0.015 0.014 0.079 0.018 0.004
GW 1 1 0.014 0.079 0.018 0.000 0.080 0.020 0.004
GW 1 1 0.000 0.080 0.020 -0.014 0.079 0.022 0.004
GW 1 1 -0.014 0.079 0.022 -0.027 0.075 0.024 0.004
GW 1 1 -0.027 0.075 0.024 -0.040 0.069 0.027 0.004
GW 1 1 -0.040 0.069 0.027 -0.052 0.061 0.029 0.004
GW 1 1 -0.052 0.061 0.029 -0.061 0.052 0.031 0.004
GW 1 1 -0.061 0.052 0.031 -0.069 0.040 0.033 0.004
GW 1 1 -0.069 0.040 0.033 -0.075 0.027 0.035 0.004
GW 1 1 -0.075 0.027 0.035 -0.079 0.014 0.038 0.004
GW 1 1 -0.079 0.014 0.038 -0.080 0.000 0.040 0.004
GW 1 1 -0.080 0.000 0.040 -0.079 -0.014 0.042 0.004
GW 1 1 -0.079 -0.014 0.042 -0.075 -0.027 0.044 0.004
GW 1 1 -0.075 -0.027 0.044 -0.069 -0.040 0.046 0.004
GW 1 1 -0.069 -0.040 0.046 -0.061 -0.052 0.049 0.004
GW 1 1 -0.061 -0.052 0.049 -0.052 -0.061 0.051 0.004
GW 1 1 -0.052 -0.061 0.051 -0.040 -0.069 0.053 0.004
GW 1 1 -0.040 -0.069 0.053 -0.027 -0.075 0.055 0.004
GW 1 1 -0.027 -0.075 0.055 -0.014 -0.079 0.057 0.004
GW 1 1 -0.014 -0.079 0.057 -0.000 -0.080 0.060 0.004
GW 1 1 -0.000 -0.080 0.060 0.014 -0.079 0.062 0.004
GW 1 1 0.014 -0.079 0.062 0.027 -0.075 0.064 0.004
GW 1 1 0.027 -0.075 0.064 0.040 -0.069 0.066 0.004
GW 1 1 0.040 -0.069 0.066 0.052 -0.061 0.068 0.004
GW 1 1 0.052 -0.061 0.068 0.061 -0.052 0.071 0.004
GW 1 1 0.061 -0.052 0.071 0.069 -0.040 0.073 0.004
GW 1 1 0.069 -0.040 0.073 0.075 -0.027 0.075 0.004
GW 1 1 0.075 -0.027 0.075 0.079 -0.014 0.077 0.004
GW 1 1 0.079 -0.014 0.077 0.080 -0.000 0.080 0.004
GW 1 1 0.080 -0.000 0.080 0.079 0.014 0.082 0.004
GW 1 1 0.079 0.014 0.082 0.075 0.027 0.084 0.004
GW 1 1 0.075 0.027 0.084 0.069 0.040 0.086 0.004
GW 1 1 0.069 0.040 0.086 0.061 0.052 0.088 0.004
GW 1 1 0.061 0.052 0.088 0.052 0.061 0.091 0.004
GW 1 1 0.052 0.061 0.091 0.040 0.069 0.093 0.004
GW 1 1 0.040 0.069 0.093 0.027 0.075 0.095 0.004
GW 1 1 0.027 0.075 0.095 0.014 0.079 0.097 0.004
GW 1 1 0.014 0.079 0.097 0.000 0.080 0.099 0.004
GW 1 1 0.000 0.080 0.099 -0.014 0.079 0.102 0.004
GW 1 1 -0.014 0.079 0.102 -0.027 0.075 0.104 0.004
GW 1 1 -0.027 0.075 0.104 -0.040 0.069 0.106 0.004
GW 1 1 -0.040 0.069 0.106 -0.052 0.061 0.108 0.004
GW 1 1 -0.052 0.061 0.108 -0.061 0.052 0.110 0.004
GW 1 1 -0.061 0.052 0.110 -0.069 0.040 0.113 0.004
GW 1 1 -0.069 0.040 0.113 -0.075 0.027 0.115 0.004
GW 1 1 -0.075 0.027 0.115 -0.079 0.014 0.117 0.004
GW 1 1 -0.079 0.014 0.117 -0.080 0.000 0.119 0.004
GW 1 1 -0.080 0.000 0.119 -0.079 -0.014 0.121 0.004
GW 1 1 -0.079 -0.014 0.121 -0.075 -0.027 0.124 0.004
GW 1 1 -0.075 -0.027 0.124 -0.069 -0.040 0.126 0.004
GW 1 1 -0.069 -0.040 0.126 -0.061 -0.052 0.128 0.004
GW 1 1 -0.061 -0.052 0.128 -0.052 -0.061 0.130 0.004
GW 1 1 -0.052 -0.061 0.130 -0.040 -0.069 0.133 0.004
GW 1 1 -0.040 -0.069 0.133 -0.027 -0.075 0.135 0.004
GW 1 1 -0.027 -0.075 0.135 -0.014 -0.079 0.137 0.004
GW 1 1 -0.014 -0.079 0.137 -0.000 -0.080 0.139 0.004
GW 1 1 -0.000 -0.080 0.139 0.014 -0.079 0.141 0.004
GW 1 1 0.014 -0.079 0.141 0.027 -0.075 0.144 0.004
GW 1 1 0.027 -0.075 0.144 0.040 -0.069 0.146 0.004
GW 1 1 0.040 -0.069 0.146 0.052 -0.061 0.148 0.004
GW 1 1 0.052 -0.061 0.148 0.061 -0.052 0.150 0.004
GW 1 1 0.061 -0.052 0.150 0.069 -0.040 0.152 0.004
GW 1 1 0.069 -0.040 0.152 0.075 -0.027 0.155 0.004
GW 1 1 0.075 -0.027 0.155 0.079 -0.014 0.157 0.004
GW 1 1 0.079 -0.014 0.157 0.080 -0.000 0.159 0.004
GW 999 1 0.073 0.000 0.082 0.073 0.007 0.082 0.001
GW 4 1 0.073 0.007 0.082 0.071 0.013 0.082 0.001
GW 4 1 0.071 0.013 0.082 0.068 0.019 0.082 0.001
GW 4 1 0.068 0.019 0.082 0.064 0.025 0.082 0.001
GW 4 1 0.064 0.025 0.082 0.059 0.030 0.082 0.001
GW 4 1 0.059 0.030 0.082 0.054 0.034 0.082 0.001
GW 4 1 0.054 0.034 0.082 0.048 0.037 0.082 0.001
GW 4 1 0.048 0.037 0.082 0.041 0.038 0.082 0.001
GW 4 1 0.041 0.038 0.082 0.034 0.039 0.082 0.001
GW 4 1 0.034 0.039 0.082 0.027 0.038 0.082 0.001
GW 4 1 0.027 0.038 0.082 0.021 0.037 0.082 0.001
GW 4 1 0.021 0.037 0.082 0.015 0.034 0.082 0.001
GW 4 1 0.015 0.034 0.082 0.009 0.030 0.082 0.001
GW 4 1 0.009 0.030 0.082 0.004 0.025 0.082 0.001
GW 4 1 0.004 0.025 0.082 0.000 0.019 0.082 0.001
GW 4 1 0.000 0.019 0.082 -0.002 0.013 0.082 0.001
GW 4 1 -0.002 0.013 0.082 -0.004 0.007 0.082 0.001
GW 4 1 -0.004 0.007 0.082 -0.005 0.000 0.082 0.001
GW 4 1 -0.005 0.000 0.082 -0.004 -0.007 0.082 0.001
GW 4 1 -0.004 -0.007 0.082 -0.002 -0.013 0.082 0.001
GW 4 1 -0.002 -0.013 0.082 0.000 -0.019 0.082 0.001
GW 4 1 0.000 -0.019 0.082 0.004 -0.025 0.082 0.001
GW 4 1 0.004 -0.025 0.082 0.009 -0.030 0.082 0.001
GW 4 1 0.009 -0.030 0.082 0.015 -0.034 0.082 0.001
GW 4 1 0.015 -0.034 0.082 0.021 -0.037 0.082 0.001
GW 4 1 0.021 -0.037 0.082 0.027 -0.038 0.082 0.001
GW 4 1 0.027 -0.038 0.082 0.034 -0.039 0.082 0.001
GW 4 1 0.034 -0.039 0.082 0.041 -0.038 0.082 0.001
GW 4 1 0.041 -0.038 0.082 0.048 -0.037 0.082 0.001
GW 4 1 0.048 -0.037 0.082 0.054 -0.034 0.082 0.001
GW 4 1 0.054 -0.034 0.082 0.059 -0.030 0.082 0.001
GW 4 1 0.059 -0.030 0.082 0.064 -0.025 0.082 0.001
GW 4 1 0.064 -0.025 0.082 0.068 -0.020 0.082 0.001
GW 4 1 0.068 -0.020 0.082 0.071 -0.013 0.082 0.001
GW 4 1 0.071 -0.013 0.082 0.073 -0.007 0.082 0.001
GW 4 1 0.073 -0.007 0.082 0.073 -0.000 0.082 0.001
GW 2 1 0.080 0.000 0.299 0.079 -0.014 0.301 0.004
GW 2 1 0.079 -0.014 0.301 0.075 -0.027 0.303 0.004
GW 2 1 0.075 -0.027 0.303 0.069 -0.040 0.306 0.004
GW 2 1 0.069 -0.040 0.306 0.061 -0.052 0.308 0.004
GW 2 1 0.061 -0.052 0.308 0.052 -0.061 0.310 0.004
GW 2 1 0.052 -0.061 0.310 0.040 -0.069 0.312 0.004
GW 2 1 0.040 -0.069 0.312 0.027 -0.075 0.314 0.004
GW 2 1 0.027 -0.075 0.314 0.014 -0.079 0.317 0.004
GW 2 1 0.014 -0.079 0.317 0.000 -0.080 0.319 0.004
GW 2 1 0.000 -0.080 0.319 -0.014 -0.079 0.321 0.004
GW 2 1 -0.014 -0.079 0.321 -0.027 -0.075 0.323 0.004
GW 2 1 -0.027 -0.075 0.323 -0.040 -0.069 0.326 0.004
GW 2 1 -0.040 -0.069 0.326 -0.052 -0.061 0.328 0.004
GW 2 1 -0.052 -0.061 0.328 -0.061 -0.052 0.330 0.004
GW 2 1 -0.061 -0.052 0.330 -0.069 -0.040 0.332 0.004
GW 2 1 -0.069 -0.040 0.332 -0.075 -0.027 0.334 0.004
GW 2 1 -0.075 -0.027 0.334 -0.079 -0.014 0.337 0.004
GW 2 1 -0.079 -0.014 0.337 -0.080 -0.000 0.339 0.004
GW 2 1 -0.080 -0.000 0.339 -0.079 0.014 0.341 0.004
GW 2 1 -0.079 0.014 0.341 -0.075 0.027 0.343 0.004
GW 2 1 -0.075 0.027 0.343 -0.069 0.040 0.345 0.004
GW 2 1 -0.069 0.040 0.345 -0.061 0.052 0.348 0.004
GW 2 1 -0.061 0.052 0.348 -0.052 0.061 0.350 0.004
GW 2 1 -0.052 0.061 0.350 -0.040 0.069 0.352 0.004
GW 2 1 -0.040 0.069 0.352 -0.027 0.075 0.354 0.004
GW 2 1 -0.027 0.075 0.354 -0.014 0.079 0.356 0.004
GW 2 1 -0.014 0.079 0.356 -0.000 0.080 0.359 0.004
GW 2 1 -0.000 0.080 0.359 0.014 0.079 0.361 0.004
GW 2 1 0.014 0.079 0.361 0.027 0.075 0.363 0.004
GW 2 1 0.027 0.075 0.363 0.040 0.069 0.365 0.004
GW 2 1 0.040 0.069 0.365 0.052 0.061 0.367 0.004
GW 2 1 0.052 0.061 0.367 0.061 0.052 0.370 0.004
GW 2 1 0.061 0.052 0.370 0.069 0.040 0.372 0.004
GW 2 1 0.069 0.040 0.372 0.075 0.027 0.374 0.004
GW 2 1 0.075 0.027 0.374 0.079 0.014 0.376 0.004
GW 2 1 0.079 0.014 0.376 0.080 0.000 0.379 0.004
GW 2 1 0.080 0.000 0.379 0.079 -0.014 0.381 0.004
GW 2 1 0.079 -0.014 0.381 0.075 -0.027 0.383 0.004
GW 2 1 0.075 -0.027 0.383 0.069 -0.040 0.385 0.004
GW 2 1 0.069 -0.040 0.385 0.061 -0.052 0.387 0.004
GW 2 1 0.061 -0.052 0.387 0.052 -0.061 0.390 0.004
GW 2 1 0.052 -0.061 0.390 0.040 -0.069 0.392 0.004
GW 2 1 0.040 -0.069 0.392 0.027 -0.075 0.394 0.004
GW 2 1 0.027 -0.075 0.394 0.014 -0.079 0.396 0.004
GW 2 1 0.014 -0.079 0.396 0.000 -0.080 0.398 0.004
GW 2 1 0.000 -0.080 0.398 -0.014 -0.079 0.401 0.004
GW 2 1 -0.014 -0.079 0.401 -0.027 -0.075 0.403 0.004
GW 2 1 -0.027 -0.075 0.403 -0.040 -0.069 0.405 0.004
GW 2 1 -0.040 -0.069 0.405 -0.052 -0.061 0.407 0.004
GW 2 1 -0.052 -0.061 0.407 -0.061 -0.052 0.409 0.004
GW 2 1 -0.061 -0.052 0.409 -0.069 -0.040 0.412 0.004
GW 2 1 -0.069 -0.040 0.412 -0.075 -0.027 0.414 0.004
GW 2 1 -0.075 -0.027 0.414 -0.079 -0.014 0.416 0.004
GW 2 1 -0.079 -0.014 0.416 -0.080 -0.000 0.418 0.004
GW 2 1 -0.080 -0.000 0.418 -0.079 0.014 0.420 0.004
GW 2 1 -0.079 0.014 0.420 -0.075 0.027 0.423 0.004
GW 2 1 -0.075 0.027 0.423 -0.069 0.040 0.425 0.004
GW 2 1 -0.069 0.040 0.425 -0.061 0.052 0.427 0.004
GW 2 1 -0.061 0.052 0.427 -0.052 0.061 0.429 0.004
GW 2 1 -0.052 0.061 0.429 -0.040 0.069 0.432 0.004
GW 2 1 -0.040 0.069 0.432 -0.027 0.075 0.434 0.004
GW 2 1 -0.027 0.075 0.434 -0.014 0.079 0.436 0.004
GW 2 1 -0.014 0.079 0.436 -0.000 0.080 0.438 0.004
GW 2 1 -0.000 0.080 0.438 0.014 0.079 0.440 0.004
GW 2 1 0.014 0.079 0.440 0.027 0.075 0.443 0.004
GW 2 1 0.027 0.075 0.443 0.040 0.069 0.445 0.004
GW 2 1 0.040 0.069 0.445 0.052 0.061 0.447 0.004
GW 2 1 0.052 0.061 0.447 0.061 0.052 0.449 0.004
GW 2 1 0.061 0.052 0.449 0.069 0.040 0.451 0.004
GW 2 1 0.069 0.040 0.451 0.075 0.027 0.454 0.004
GW 2 1 0.075 0.027 0.454 0.079 0.014 0.456 0.004
GW 2 1 0.079 0.014 0.456 0.080 0.000 0.458 0.004
GW 3 2 0.080 -0.000 0.159 0.080 0.000 0.299 0.004
GM 0 0 0 0 0 0 0 8.000
GE 1
GN 2 0 0 0 11.000 0.010 
EK
LD 5 0 0 0 58000000.000000 
EX 0 999 1 0 1 0
FR 0 1 0 0 144.200 0
RP 0 1 1 1000 85 90 0 0
EN