CM No comments specified
CE
GW 1 7 0.375 0.100 0.000 0.011 0.100 0.000 0.005
GW 999 1 0.011 0.100 0.000 -0.041 0.100 0.000 0.005
GW 1 7 -0.041 0.100 0.000 -0.375 0.100 0.000 0.005
GM 0 0 0 0 0 0 0 8.000
GE 1
GN 2 0 0 0 11.000 0.010 
EK
LD 5 0 0 0 58000000.000000 
EX 0 999 1 0 1 0
FR 0 1 0 0 144.200 0
RP 0 1 1 1000 87.00 90.00 0 0
EN