CM No comments specified
CE
GW 1 12 0.300 0.000 0.000 -0.300 0.000 0.000 0.0034408774699138727
GW 2 7 0.409 0.143 0.000 0.045 0.143 0.000 0.006529620499380805
GW 999 1 0.045 0.143 0.000 -0.007 0.143 0.000 0.006529620499380805
GW 2 7 -0.007 0.143 0.000 -0.409 0.143 0.000 0.006529620499380805
GW 3 20 0.518 0.302 0.000 -0.518 0.302 0.000 0.004147292672507674
GM 0 0 0 0 0 0 0 8.000
GE 1
GN 2 0 0 0 11.000 0.010 
EK
LD 5 0 0 0 58000000.000000 
EX 0 999 1 0 1 0
FR 0 1 0 0 144.200 0
RP 0 1 1 1000 87.00 90.00 0 0
EN