CM No comments specified
CE
GW 1 1 0.075 0.000 0.000 0.074 0.013 0.002 0.001
GW 1 1 0.074 0.013 0.002 0.071 0.026 0.004 0.001
GW 1 1 0.071 0.026 0.004 0.065 0.038 0.005 0.001
GW 1 1 0.065 0.038 0.005 0.058 0.049 0.007 0.001
GW 1 1 0.058 0.049 0.007 0.049 0.058 0.009 0.001
GW 1 1 0.049 0.058 0.009 0.038 0.065 0.011 0.001
GW 1 1 0.038 0.065 0.011 0.026 0.071 0.013 0.001
GW 1 1 0.026 0.071 0.013 0.013 0.074 0.015 0.001
GW 1 1 0.013 0.074 0.015 0.000 0.075 0.016 0.001
GW 1 1 0.000 0.075 0.016 -0.013 0.074 0.018 0.001
GW 1 1 -0.013 0.074 0.018 -0.026 0.071 0.020 0.001
GW 1 1 -0.026 0.071 0.020 -0.038 0.065 0.022 0.001
GW 1 1 -0.038 0.065 0.022 -0.049 0.058 0.024 0.001
GW 1 1 -0.049 0.058 0.024 -0.058 0.049 0.025 0.001
GW 1 1 -0.058 0.049 0.025 -0.065 0.038 0.027 0.001
GW 1 1 -0.065 0.038 0.027 -0.071 0.026 0.029 0.001
GW 1 1 -0.071 0.026 0.029 -0.074 0.013 0.031 0.001
GW 1 1 -0.074 0.013 0.031 -0.075 0.000 0.033 0.001
GW 1 1 -0.075 0.000 0.033 -0.074 -0.013 0.035 0.001
GW 1 1 -0.074 -0.013 0.035 -0.071 -0.026 0.036 0.001
GW 1 1 -0.071 -0.026 0.036 -0.065 -0.038 0.038 0.001
GW 1 1 -0.065 -0.038 0.038 -0.058 -0.049 0.040 0.001
GW 1 1 -0.058 -0.049 0.040 -0.049 -0.058 0.042 0.001
GW 1 1 -0.049 -0.058 0.042 -0.038 -0.065 0.044 0.001
GW 1 1 -0.038 -0.065 0.044 -0.026 -0.071 0.045 0.001
GW 1 1 -0.026 -0.071 0.045 -0.013 -0.074 0.047 0.001
GW 1 1 -0.013 -0.074 0.047 -0.000 -0.075 0.049 0.001
GW 1 1 -0.000 -0.075 0.049 0.013 -0.074 0.051 0.001
GW 1 1 0.013 -0.074 0.051 0.026 -0.071 0.053 0.001
GW 1 1 0.026 -0.071 0.053 0.038 -0.065 0.055 0.001
GW 1 1 0.038 -0.065 0.055 0.049 -0.058 0.056 0.001
GW 1 1 0.049 -0.058 0.056 0.058 -0.049 0.058 0.001
GW 1 1 0.058 -0.049 0.058 0.065 -0.038 0.060 0.001
GW 1 1 0.065 -0.038 0.060 0.071 -0.026 0.062 0.001
GW 1 1 0.071 -0.026 0.062 0.074 -0.013 0.064 0.001
GW 1 1 0.074 -0.013 0.064 0.075 -0.000 0.066 0.001
GW 1 1 0.075 -0.000 0.066 0.074 0.013 0.067 0.001
GW 1 1 0.074 0.013 0.067 0.071 0.026 0.069 0.001
GW 1 1 0.071 0.026 0.069 0.065 0.038 0.071 0.001
GW 1 1 0.065 0.038 0.071 0.058 0.049 0.073 0.001
GW 1 1 0.058 0.049 0.073 0.049 0.058 0.075 0.001
GW 1 1 0.049 0.058 0.075 0.038 0.065 0.076 0.001
GW 1 1 0.038 0.065 0.076 0.026 0.071 0.078 0.001
GW 1 1 0.026 0.071 0.078 0.013 0.074 0.080 0.001
GW 1 1 0.013 0.074 0.080 0.000 0.075 0.082 0.001
GW 1 1 0.000 0.075 0.082 -0.013 0.074 0.084 0.001
GW 1 1 -0.013 0.074 0.084 -0.026 0.071 0.086 0.001
GW 1 1 -0.026 0.071 0.086 -0.038 0.065 0.087 0.001
GW 1 1 -0.038 0.065 0.087 -0.049 0.058 0.089 0.001
GW 1 1 -0.049 0.058 0.089 -0.058 0.049 0.091 0.001
GW 1 1 -0.058 0.049 0.091 -0.065 0.038 0.093 0.001
GW 1 1 -0.065 0.038 0.093 -0.071 0.026 0.095 0.001
GW 1 1 -0.071 0.026 0.095 -0.074 0.013 0.096 0.001
GW 1 1 -0.074 0.013 0.096 -0.075 0.000 0.098 0.001
GW 1 1 -0.075 0.000 0.098 -0.074 -0.013 0.100 0.001
GW 1 1 -0.074 -0.013 0.100 -0.071 -0.026 0.102 0.001
GW 1 1 -0.071 -0.026 0.102 -0.065 -0.038 0.104 0.001
GW 1 1 -0.065 -0.038 0.104 -0.058 -0.049 0.106 0.001
GW 1 1 -0.058 -0.049 0.106 -0.049 -0.058 0.107 0.001
GW 1 1 -0.049 -0.058 0.107 -0.038 -0.065 0.109 0.001
GW 1 1 -0.038 -0.065 0.109 -0.026 -0.071 0.111 0.001
GW 1 1 -0.026 -0.071 0.111 -0.013 -0.074 0.113 0.001
GW 1 1 -0.013 -0.074 0.113 -0.000 -0.075 0.115 0.001
GW 1 1 -0.000 -0.075 0.115 0.013 -0.074 0.116 0.001
GW 1 1 0.013 -0.074 0.116 0.026 -0.071 0.118 0.001
GW 1 1 0.026 -0.071 0.118 0.038 -0.065 0.120 0.001
GW 1 1 0.038 -0.065 0.120 0.049 -0.058 0.122 0.001
GW 1 1 0.049 -0.058 0.122 0.058 -0.049 0.124 0.001
GW 1 1 0.058 -0.049 0.124 0.065 -0.038 0.126 0.001
GW 1 1 0.065 -0.038 0.126 0.071 -0.026 0.127 0.001
GW 1 1 0.071 -0.026 0.127 0.074 -0.013 0.129 0.001
GW 1 1 0.074 -0.013 0.129 0.075 -0.000 0.131 0.001
GW 999 1 0.071 0.000 0.066 0.071 0.007 0.066 0.001
GW 4 1 0.071 0.007 0.066 0.069 0.014 0.066 0.001
GW 4 1 0.069 0.014 0.066 0.066 0.020 0.066 0.001
GW 4 1 0.066 0.020 0.066 0.062 0.026 0.066 0.001
GW 4 1 0.062 0.026 0.066 0.057 0.031 0.066 0.001
GW 4 1 0.057 0.031 0.066 0.051 0.035 0.066 0.001
GW 4 1 0.051 0.035 0.066 0.045 0.038 0.066 0.001
GW 4 1 0.045 0.038 0.066 0.038 0.040 0.066 0.001
GW 4 1 0.038 0.040 0.066 0.031 0.041 0.066 0.001
GW 4 1 0.031 0.041 0.066 0.024 0.040 0.066 0.001
GW 4 1 0.024 0.040 0.066 0.017 0.038 0.066 0.001
GW 4 1 0.017 0.038 0.066 0.011 0.035 0.066 0.001
GW 4 1 0.011 0.035 0.066 0.005 0.031 0.066 0.001
GW 4 1 0.005 0.031 0.066 -0.000 0.026 0.066 0.001
GW 4 1 -0.000 0.026 0.066 -0.004 0.020 0.066 0.001
GW 4 1 -0.004 0.020 0.066 -0.007 0.014 0.066 0.001
GW 4 1 -0.007 0.014 0.066 -0.009 0.007 0.066 0.001
GW 4 1 -0.009 0.007 0.066 -0.010 0.000 0.066 0.001
GW 4 1 -0.010 0.000 0.066 -0.009 -0.007 0.066 0.001
GW 4 1 -0.009 -0.007 0.066 -0.007 -0.014 0.066 0.001
GW 4 1 -0.007 -0.014 0.066 -0.004 -0.020 0.066 0.001
GW 4 1 -0.004 -0.020 0.066 -0.000 -0.026 0.066 0.001
GW 4 1 -0.000 -0.026 0.066 0.005 -0.031 0.066 0.001
GW 4 1 0.005 -0.031 0.066 0.011 -0.035 0.066 0.001
GW 4 1 0.011 -0.035 0.066 0.017 -0.038 0.066 0.001
GW 4 1 0.017 -0.038 0.066 0.024 -0.040 0.066 0.001
GW 4 1 0.024 -0.040 0.066 0.031 -0.041 0.066 0.001
GW 4 1 0.031 -0.041 0.066 0.038 -0.040 0.066 0.001
GW 4 1 0.038 -0.040 0.066 0.045 -0.038 0.066 0.001
GW 4 1 0.045 -0.038 0.066 0.051 -0.035 0.066 0.001
GW 4 1 0.051 -0.035 0.066 0.057 -0.031 0.066 0.001
GW 4 1 0.057 -0.031 0.066 0.062 -0.026 0.066 0.001
GW 4 1 0.062 -0.026 0.066 0.066 -0.020 0.066 0.001
GW 4 1 0.066 -0.020 0.066 0.069 -0.014 0.066 0.001
GW 4 1 0.069 -0.014 0.066 0.071 -0.007 0.066 0.001
GW 4 1 0.071 -0.007 0.066 0.071 -0.000 0.066 0.001
GW 2 1 0.075 0.000 0.253 0.074 -0.013 0.255 0.001
GW 2 1 0.074 -0.013 0.255 0.071 -0.026 0.257 0.001
GW 2 1 0.071 -0.026 0.257 0.065 -0.038 0.258 0.001
GW 2 1 0.065 -0.038 0.258 0.058 -0.049 0.260 0.001
GW 2 1 0.058 -0.049 0.260 0.049 -0.058 0.262 0.001
GW 2 1 0.049 -0.058 0.262 0.038 -0.065 0.264 0.001
GW 2 1 0.038 -0.065 0.264 0.026 -0.071 0.266 0.001
GW 2 1 0.026 -0.071 0.266 0.013 -0.074 0.268 0.001
GW 2 1 0.013 -0.074 0.268 0.000 -0.075 0.269 0.001
GW 2 1 0.000 -0.075 0.269 -0.013 -0.074 0.271 0.001
GW 2 1 -0.013 -0.074 0.271 -0.026 -0.071 0.273 0.001
GW 2 1 -0.026 -0.071 0.273 -0.038 -0.065 0.275 0.001
GW 2 1 -0.038 -0.065 0.275 -0.049 -0.058 0.277 0.001
GW 2 1 -0.049 -0.058 0.277 -0.058 -0.049 0.278 0.001
GW 2 1 -0.058 -0.049 0.278 -0.065 -0.038 0.280 0.001
GW 2 1 -0.065 -0.038 0.280 -0.071 -0.026 0.282 0.001
GW 2 1 -0.071 -0.026 0.282 -0.074 -0.013 0.284 0.001
GW 2 1 -0.074 -0.013 0.284 -0.075 -0.000 0.286 0.001
GW 2 1 -0.075 -0.000 0.286 -0.074 0.013 0.288 0.001
GW 2 1 -0.074 0.013 0.288 -0.071 0.026 0.289 0.001
GW 2 1 -0.071 0.026 0.289 -0.065 0.038 0.291 0.001
GW 2 1 -0.065 0.038 0.291 -0.058 0.049 0.293 0.001
GW 2 1 -0.058 0.049 0.293 -0.049 0.058 0.295 0.001
GW 2 1 -0.049 0.058 0.295 -0.038 0.065 0.297 0.001
GW 2 1 -0.038 0.065 0.297 -0.026 0.071 0.298 0.001
GW 2 1 -0.026 0.071 0.298 -0.013 0.074 0.300 0.001
GW 2 1 -0.013 0.074 0.300 -0.000 0.075 0.302 0.001
GW 2 1 -0.000 0.075 0.302 0.013 0.074 0.304 0.001
GW 2 1 0.013 0.074 0.304 0.026 0.071 0.306 0.001
GW 2 1 0.026 0.071 0.306 0.038 0.065 0.308 0.001
GW 2 1 0.038 0.065 0.308 0.049 0.058 0.309 0.001
GW 2 1 0.049 0.058 0.309 0.058 0.049 0.311 0.001
GW 2 1 0.058 0.049 0.311 0.065 0.038 0.313 0.001
GW 2 1 0.065 0.038 0.313 0.071 0.026 0.315 0.001
GW 2 1 0.071 0.026 0.315 0.074 0.013 0.317 0.001
GW 2 1 0.074 0.013 0.317 0.075 0.000 0.319 0.001
GW 2 1 0.075 0.000 0.319 0.074 -0.013 0.320 0.001
GW 2 1 0.074 -0.013 0.320 0.071 -0.026 0.322 0.001
GW 2 1 0.071 -0.026 0.322 0.065 -0.038 0.324 0.001
GW 2 1 0.065 -0.038 0.324 0.058 -0.049 0.326 0.001
GW 2 1 0.058 -0.049 0.326 0.049 -0.058 0.328 0.001
GW 2 1 0.049 -0.058 0.328 0.038 -0.065 0.329 0.001
GW 2 1 0.038 -0.065 0.329 0.026 -0.071 0.331 0.001
GW 2 1 0.026 -0.071 0.331 0.013 -0.074 0.333 0.001
GW 2 1 0.013 -0.074 0.333 0.000 -0.075 0.335 0.001
GW 2 1 0.000 -0.075 0.335 -0.013 -0.074 0.337 0.001
GW 2 1 -0.013 -0.074 0.337 -0.026 -0.071 0.339 0.001
GW 2 1 -0.026 -0.071 0.339 -0.038 -0.065 0.340 0.001
GW 2 1 -0.038 -0.065 0.340 -0.049 -0.058 0.342 0.001
GW 2 1 -0.049 -0.058 0.342 -0.058 -0.049 0.344 0.001
GW 2 1 -0.058 -0.049 0.344 -0.065 -0.038 0.346 0.001
GW 2 1 -0.065 -0.038 0.346 -0.071 -0.026 0.348 0.001
GW 2 1 -0.071 -0.026 0.348 -0.074 -0.013 0.349 0.001
GW 2 1 -0.074 -0.013 0.349 -0.075 -0.000 0.351 0.001
GW 2 1 -0.075 -0.000 0.351 -0.074 0.013 0.353 0.001
GW 2 1 -0.074 0.013 0.353 -0.071 0.026 0.355 0.001
GW 2 1 -0.071 0.026 0.355 -0.065 0.038 0.357 0.001
GW 2 1 -0.065 0.038 0.357 -0.058 0.049 0.359 0.001
GW 2 1 -0.058 0.049 0.359 -0.049 0.058 0.360 0.001
GW 2 1 -0.049 0.058 0.360 -0.038 0.065 0.362 0.001
GW 2 1 -0.038 0.065 0.362 -0.026 0.071 0.364 0.001
GW 2 1 -0.026 0.071 0.364 -0.013 0.074 0.366 0.001
GW 2 1 -0.013 0.074 0.366 -0.000 0.075 0.368 0.001
GW 2 1 -0.000 0.075 0.368 0.013 0.074 0.369 0.001
GW 2 1 0.013 0.074 0.369 0.026 0.071 0.371 0.001
GW 2 1 0.026 0.071 0.371 0.038 0.065 0.373 0.001
GW 2 1 0.038 0.065 0.373 0.049 0.058 0.375 0.001
GW 2 1 0.049 0.058 0.375 0.058 0.049 0.377 0.001
GW 2 1 0.058 0.049 0.377 0.065 0.038 0.379 0.001
GW 2 1 0.065 0.038 0.379 0.071 0.026 0.380 0.001
GW 2 1 0.071 0.026 0.380 0.074 0.013 0.382 0.001
GW 2 1 0.074 0.013 0.382 0.075 0.000 0.384 0.001
GW 3 3 0.075 -0.000 0.131 0.075 0.000 0.253 0.001
GM 0 0 0 0 0 0 0 8.000
GE 1
GN 2 0 0 0 11.000 0.010 
EK
LD 5 0 0 0 58000000.000000 
EX 0 999 1 0 1 0
FR 0 1 0 0 144.200 0
RP 0 1 1 1000 85.00 90.00 0 0
EN