CM No comments specified
CE
GW 1 6 0.334 0.276 0.000 0.022 0.276 0.000 0.004964481126580713
GW 999 1 0.022 0.276 0.000 -0.030 0.276 0.000 0.004964481126580713
GW 1 6 -0.030 0.276 0.000 -0.334 0.276 0.000 0.004964481126580713
GW 2 2 -0.334 0.177 0.000 -0.334 0.276 0.000 0.004964481126580713
GW 3 2 0.334 0.177 0.000 0.334 0.276 0.000 0.004964481126580713
GW 4 13 0.334 0.000 0.000 -0.334 0.000 0.000 0.004964481126580713
GW 5 3 -0.334 0.000 0.000 -0.334 0.147 0.000 0.004964481126580713
GW 6 3 0.334 0.000 0.000 0.334 0.147 0.000 0.004964481126580713
GM 0 0 0 0 0 0 0 8.000
GE 1
GN 2 0 0 0 11.000 0.010 
EK
LD 5 0 0 0 58000000.000000 
EX 0 999 1 0 1 0
FR 0 1 0 0 144.200 0
RP 0 1 1 1000 87.00 90.00 0 0
EN