CM No comments specified
CE
GW 1 6 -0.343 0.309 0.000 -0.031 0.309 0.000 0.005215022932918522
GW 999 1 -0.031 0.309 0.000 0.021 0.309 0.000 0.005215022932918522
GW 1 6 0.021 0.309 0.000 0.343 0.309 0.000 0.005215022932918522
GW 2 3 -0.343 0.190 0.000 -0.343 0.309 0.000 0.005215022932918522
GW 3 3 0.343 0.190 0.000 0.343 0.309 0.000 0.005215022932918522
GW 4 14 -0.343 0.000 0.000 0.343 0.000 0.000 0.005215022932918522
GW 5 4 -0.343 0.000 0.000 -0.343 0.162 0.000 0.005215022932918522
GW 6 4 0.343 0.000 0.000 0.343 0.162 0.000 0.005215022932918522
GM 0 0 0 0 0 0 0 8.000
GE 1
GN 2 0 0 0 11.000 0.010 
EK
LD 5 0 0 0 58000000.000000 
EX 0 999 1 0 1 0
FR 0 1 0 0 144.200 0
RP 0 1 1 1000 87.00 90.00 0 0
EN