CM No comments specified
CE
GW 1 9 -1.000 0.000 0.480 -1.000 0.000 0.948 0.005
GW 999 1 -1.000 0.000 0.948 -1.000 0.000 1.000 0.005
GW 1 9 -1.000 0.000 1.000 -1.000 0.000 1.520 0.005
GM 0 0 0 0 0 0 0 0.000
GE 0
EK
EX 0 999 1 0 1 0
FR 0 1 0 0 144.200 0
RP 0 1 360 1000 87.00 0.00 0 1.00
EN