CM No comments specified
CE
GW 1 18 0.449 0.000 0.000 -0.449 0.000 0.000 0.008773198664647881
GW 2 7 0.400 0.299 0.000 0.036 0.299 0.000 0.008773198664647881
GW 999 1 0.036 0.299 0.000 -0.016 0.299 0.000 0.008773198664647881
GW 2 7 -0.016 0.299 0.000 -0.400 0.299 0.000 0.008773198664647881
GW 3 24 0.600 0.492 0.000 -0.600 0.492 0.000 0.008773198664647881
GM 0 0 0 0 0 0 0 8.000
GE 1
GN 2 0 0 0 11.000 0.010 
EK
LD 5 0 0 0 58000000.000000 
EX 0 999 1 0 1 0
FR 0 1 0 0 144.200 0
RP 0 1 1 1000 87.00 90.00 0 0
EN