CM
CM Y is North
CE
SY Vl=0.963271
SY BASE=7
SY HT=0.990
SY WD=0.28
SY S=0.108068
SY Phi=90
SY Xv=0.4
SY Yv=-0.1
SY Xh=-0.8
SY Yh=-0.1
'
'
GW	1	3	-WD/2	0.	0.0	WD/2	0.0	0.0	.005
GW	2	5	-WD/2	0.	0.0	-WD/2	0.0	S	.005
GW	21	9	-WD/2	0.	S	-WD/2	0.0	HT	.005
GW	3	5	WD/2	0.	0.0	WD/2	0.0	S	.005
GW	31	9	WD/2	0.	S	WD/2	0.0	HT	.005
GW	4	3	-WD/2	0.	HT	WD/2	0.0	HT	.005
GW	5	3	-WD/2	0.	S	WD/2	0.0	S	.005
GM	0	0	0	0	-Phi	Xh	Yh	BASE

GW	51	9	Xv	Yv	BASE	Xv	Yv	BASE+Vl	.005
GM	0	0	0	0	-32 	0	0	0




GE -1
GN 2 0 0 0 11 0.01

' Hentenna feed
'EX	0	5	2	0	1.
' Vertical feed
EX	0	51	5	0	1.

FR	0	5	0	0	144.2	1.0
EN
