CM
CM
CM
CE
SY BASE=8
SY Lref=1.0
SY WD=0.0035
SY LD=0.965

GW	1	9	-LD/2	0.	0	LD/2	0.0	0	WD/2
GM	0	0	0	0	0	0	0	BASE
	

GE	1
GN 2 0 0 0 11 0.01
EX  0    1    5    0  1.
FR	0	5	0	0	144.2	1.0
EN
