CM
CM
CM
CE
GW  1    9    -0.49      0.         0.0       0.49    0.0     0.0    .005
GE
EX  0    1    5    0  1.
FR  0    5    0    0  144.      1.0
EN
