CM
CM
CM
CE
SY BASE=7500
SY Xc=0
SY Yc=0
SY Phi=0
SY WDia=5
SY LDip=360
SY Ldrp=400


GW	1	10	-10	0.	0.0	10	0.0	0.0	WDia/2
GW	2	10	-LDip/2	0.	0.0	-10	0.0	0.0	WDia/2
GW	3	10	10	0.	0.0	LDip/2	0.0	0.0	WDia/2
GW	4	10	LDip/2	0.	-ldrp	LDip/2	0.0	0.0	WDia/2
GW	5	10	-LDip/2	0.	-ldrp	-LDip/2	0.0	0.0	WDia/2

GW	10	30	10	0.	0.0	10	0.0	-1560	WDia/2

GM	0	0	0	0	Phi	Xc	Yc	BASE
	
GS	0	0	0.001

GE -1
GN 2 0 0 0 11 0.01
EX  0    1    5    0  1.
FR  0    5    0    0  144.      1.0
EN
