CM
CM
CM
CE
SY BASE=7500
SY Xc=0
SY Yc=0
SY Phi=0
SY WDia=5
SY LDip=1040


GW	1	1	-10	0.	10	10	0.0	10	WDia/2
GW	2	10	-LDip/2	0.	10	-10	0.0	10	WDia/2
GW	3	10	10	0.	10	LDip/2	0.0	10	WDia/2

GW	10	10	10	0.	0.0	10	0.0	-520	WDia/2
GW	11	10	-10	0.	0.0	-10	0.0	-520	WDia/2
GW	12	1	-10	0.	-520	-10	-10	-520	WDia/2
GW	13	10	-10	-10	-520	-10	-10	-10	WDia/2
GW	14	1	-10	-10	-10	10	-10	-10	WDia/2
GW	15	10	10	-10	-520	10	-10	-10	WDia/2
GW	16	10	10	-10	-520	10	0	-520	WDia/2
GW	17	10	-10	0.	0	10	0.0	0	WDia/2
GW	18	10	10	0.	-520	10	0.0	-1300	WDia/2

GM	0	0	0	0	Phi	Xc	Yc	BASE
	
GS	0	0	0.001

GE -1
GN 2 0 0 0 11 0.01
EX	0	1	1	0	1.
FR  0    5    0    0  144.      1.0
EN
