CM
CM
CM
CE
SY Apex=8.0
SY WD=5.003e-3
SY LD=0.957724
SY LR=1.025228
SY Dy=0.224554
SY Dz=0.25
GW	1	9	-LR/2	0	-Dz	LR/2	0	-Dz	WD/2
GW	2	9	-LD/2	Dy	0	LD/2	Dy	0	WD/2
GW	3	9	-LR/2	0	Dz	LR/2	0	Dz	WD/2
GM	0	0	0	0	-32	0	0	Apex
GE	-1
GN 2 0 0 0 11 0.01
EX	0	2	5	00	1.
FR	0	5	0	0	144.2	1.0
EN
