SY Dwire=1	'mm
SY MHz=7.05
SY H=5.0
SY Ind=6.91e-5
SY IndQ=500
SY Xl=1/(2*3.141*MHz*1e6*Ind)
SY IndESR=Xl/IndQ
SY L=3
SY Lr=2


GW	300	9	0	0	0	0	0	L	Dwire/2000
'GW	301	9	0	0	0	Lr	0	0	Dwire/2000
'GW	302	9	0	0	0	-Lr	0	0	Dwire/2000
GW	303	9	0	0	0	0	Lr	0	Dwire/2000
GW	304	9	0	0	0	0	-Lr	0	Dwire/2000



GM	0	0	0	0	0	0	0	H
GE -1
LD	5	0	0	0	58000000
LD	0	300	6	6	IndESR	Ind	1


GN 2 0 0 0 11 0.01
EX	0	300	1	0	1	0
FR	0	1	0	0	MHz	0
EN						
