SY H=7.0
SY L=10
GW	300	9	0	0	-L/2	0	0	L/2	0.0001
GM	0	0	90	0	0	0	0	H
GE -1
GN 2 0 0 0 15 0.01
EX	0	300	5	0	1	0
FR,0,1,0,0,14.07
PQ -1
PT -1
