SY Dwire=1	'mm
SY MHz=7.05
SY H=5.0
SY L=3
SY Lr=2


GW	300	9	0	0	0	0	0	L	Dwire/2000
'GW	301	9	0	0	0	Lr	0	0	Dwire/2000
'GW	302	9	0	0	0	-Lr	0	0	Dwire/2000
GW	303	9	0	0	0	0	Lr	0	Dwire/2000
GW	304	9	0	0	0	0	-Lr	0	Dwire/2000



GM	0	0	0	0	0	0	0	H
GE -1
LD	5	0	0	0	58000000


GN 2 0 0 0 11 0.01
EX	0	300	1	0	1	0
FR	0	1	0	0	MHz	0
EN						
