CM GX	6	010	
CM 
CE
SY PADIA = 4.7625
SY DEDIA = 15.8750
SY RP = 0
SY DEP = 248.0000
SY D1P = 330.0000
SY D2P = 645.0000
SY D3P = 1142.0000
SY D4P = 1700.0000
SY R = 516.0000
SY DE = 505.0000
SY D1 = 482.0000
SY D2 = 471.5000
SY D3 = 454.5000
SY D4 = 434.0000
GW	1	25	RP	-R	0	RP	R	0	(PADIA)/2
GW	2	25	DEP	-DE	0	DEP	DE	0	(DEDIA)/2
GW	3	25	D1P	-D1	0	D1P	D1	0	(PADIA)/2
GW	4	23	D2P	-D2	0	D2P	D2	0	(PADIA)/2
GW	5	23	D3P	-D3	0	D3P	D3	0	(PADIA)/2
GW	6	21	D4P	-D4	0	D4P	D4	0	(PADIA)/2
GS	0	0	mm
GE	0
LD	5	1	0	0	30800000
LD	5	2	0	0	30800000
LD	5	3	0	0	30800000
LD	5	4	0	0	30800000
LD	5	5	0	0	30800000
LD	5	6	0	0	30800000
GN	-1
EK
EX	0	2	13	0	1	0	0
FR	0	0	0	0	144.5	0
EN
