CM
CM
CM
CE
SY Top=3.220468
SY Xc=0
SY Yc=0.0
SY Phi=90
SY DSep=1.550308
SY BASE=7.2
SY Line=2.04

GW	1	9	0	-Top/2	BASE	0	Top/2	BASE	.005
GW	4	9	0	-Top/2	BASE+Dsep	0	Top/2	BASE+Dsep	.005
GM	0	0	0	0	Phi	Xc	Yc
	
GM	0	0	0	0	-32

GE -1
GN 2 0 0 0 11 0.01
TL	1	5	4	5	100	Line
LD	0	501	5	5	500	1e-6	50e-12

EX	0	1	5	0	1.
FR  0    5    0    0  144.      1.0
EN
