CM
CM
CM
CE
SY Len=3.066408
SY Xc=0
SY Yc=0
SY Phi=0
SY BASE=7.2
GW	1	9	Xc	-Len/2	BASE	Xc	Len/2	BASE	.004
GW	2	1	Xc	-0.01	BASE-0.1	Xc	0.01	BASE-0.1	.004
GM	0	0	0	0	Phi	Xc	Yc

GM	0	0	0	0	-32
GE -1
TL	1	5	2	1	75	0.51
GN 2 0 0 0 11 0.01
EX	0	2	1	0	1.
FR  0    5    0    0  144.      1.0
EN
