SY MHz=21.07
SY Dwire=1	' Wire diameter mm
SY Va=90	' V angle degrees
SY Ha=7.0	' Height of apex, m
SY Leg=3.5	' Length of one leg, m 
SY Gap=0.2
SY Ind=0.001e-5
CM
CM Add the main wires vertically (initially) 
GW	2	11	0	0	0	0	0	Leg	Dwire/2000
CM Lift to accomodate feed segment
GM	0	0	0	0	0	0	0	Gap/2
CM Add feed segment
GW	1	1	0.0	0	Gap/2	0	0	0	Dwire/2000
CM
CM Tilt over by 180-Va/2 and lift to height
GM	0	0	180-Va/2	0	0	0	0	Ha
CM Reflect & copy to add other half
GX	50	010
GE	-1	'end of geometry
LD	5	0	0	0	58000000	'copper wires everywhere
'LD	0	1	55	55	1	Ind	1
'LD	0	2	55	55	1	Ind	1
GN 2 0 0 0 11 0.01
EK
EX	0	1	1	0	1	0	' feed at top of V
FR,0,1,0,0,21.07
PQ -1
PT -1
