CM
CM
CM
CM forw: 85, 90 ; back: 85, 270
CE
SY Sep=1.7
SY Len=1.1	'1
SY BASE=7.0
GW	99	1	-0.01	0	BASE	0.01	0	BASE	0.005
GW	1	9	-0.49	-sep/2	BASE	0.49	-sep/2	BASE	.005
GW	2	9	-0.49	sep/2	BASE	0.49	sep/2	BASE	.005
GE -1
GN 2 0 0 0 15 0.01
TL	1	5	99	1	50	Len
TL	2	5	99	1	50	Len
EX	0	99	1	00	1.	0
FR,0,1,0,0,144
PQ -1
PT -1
RP,0,19,73,1003,-90,0,5,5
