CM
CM
CM
CM forw: 85, 90 ; back: 85, 270
CE
SY Sep=2.041672
SY BASE=7.0
GW	1	9	-0.49	0.	BASE	0.49	0.0	BASE	.005
GW	2	9	Sep-0.49	0.	BASE	Sep+0.49	0.0	BASE	.005
GE -1
GN 2 0 0 0 15 0.01
EX  0    1    5    0  1.
EX	0	2	5	0	1.
FR,0,1,0,0,144
PQ -1
PT -1
RP,0,19,73,1003,-90,0,5,5
