CM
CM
CM
CM forw: 86, 125 ; back: 86, 305
CE
SY BASE=8.0
SY h=0.488442
SY w=0.328803
SY o=0.098291
GW	1	9	-w/2	0.	BASE+o	w/2	0.0	BASE+o	.005
GW	2	9	-w/2	0	base-h/2	-w/2	0	base+o	.005
GW	3	9	-w/2	0.	base+o	-w/2	0.0	base+h/2	.005
GW	4	9	w/2	0.	base-h/2	w/2	0.0	base+o	.005
GW	5	9	w/2	0.	base+o	w/2	0.0	base+h/2	.005
GE -1
GN 2 0 0 0 11 0.01
EX  0    1    5    0  1.
FR,0,1,0,0,144
PQ -1
PT -1
