CM
CM
CM
CE
SY BASE=7.8
SY Xc=0
SY Yc=0
SY Phi=-60
SY Sep=0.26
SY Lref=1.0
SY WD=0.005
SY LD=0.965

GW	1	9	-LD/2	sep/2	0	LD/2	sep/2	0	WD/2
GW	2	9	-Lref/2	-sep/2	0	Lref/2	-sep/2	0	WD/2
GM	0	0	0	0	-Phi	Xc	Yc	BASE
	
GW	101	9	1.3	1.67	6.95	2.7	1.67	6.95	0.01
GW	102	9	-1.3	1.67	6.95	-2.7	1.67	6.95	0.01
GW	103	9	1.3	-1.67	6.95	2.7	-1.67	6.95	0.01
GW	104	9	-1.3	-1.67	6.95	-2.7	-1.67	6.95	0.01
GW	105	9	-1.3	0.1	6.95	-2.7	0.1	6.95	0.01
GW	106	9	1.3	0.1	6.95	2.7	0.1	6.95	0.01

GW	201	9	1.3	1.67	5.1	2.7	1.67	5.1	0.01
GW	202	9	-1.3	1.67	5.1	-2.7	1.67	5.1	0.01
GW	203	9	1.3	-1.67	5.1	2.7	-1.67	5.1	0.01
GW	204	9	-1.3	-1.67	5.1	-2.7	-1.67	5.1	0.01
GW	205	9	-1.3	0.1	5.1	-2.7	0.1	5.1	0.01
GW	206	9	1.3	0.1	5.1	2.7	0.1	5.1	0.01

GW	301	9	1.3	2.8	6.2	2.7	2.8	6.2	0.01
GW	302	9	-1.3	2.8	6.2	-2.7	2.8	6.2	0.01
GW	303	9	1.3	-2.8	6.2	2.7	-2.8	6.2	0.01
GW	304	9	-1.3	-2.8	6.2	-2.7	-2.8	6.2	0.01

GW	501	9	1	-1.42	7.3	1	1.42	7.3	0.01



GM	0	0	0	0	-32	0	0	0

GE -1
GN 2 0 0 0 11 0.01
EX  0    1    5    0  1.
FR  0    5    0    0  144.      1.0
EN
