SY Dwire=1	'mm
SY MHz=7.05
SY H=7.0
SY VInd=2.75e-5
SY L=10
SY IndQ=500
SY Xl=1/(2*3.141*MHz*1e6*VInd)
SY IndESR=Xl/IndQ


GW	300	99	0	0	-L/2	0	0	L/2	Dwire/2000
GM	0	0	90	0	0	0	0	H
GE	-1
LD	1	300	70	70	1	VInd	0
LD	1	300	30	30	1	VInd	0
GN 2 0 0 0 15 0.01
LD	5	0	0	0	58000000
EX	0	300	50	0	1	0
FR,0,1,0,0,7.05
PQ -1
PT -1
