SY Dwire=1	'mm
SY H=7.0
SY L=10.3574
SY Rspoke=1
SY Nspokes=32
GW	1	0	0	0	L/2	0	Rspoke	L/2	Dwire/2000
GW	2	0	0	Rspoke	L/2	Rspoke*sin(360.0/Nspokes)	Rspoke*Cos(360.0/Nspokes)	L/2	Dwire/2000
GW	3	0	0	0	-L/2	0	Rspoke	-L/2	Dwire/2000
GW	4	0	0	Rspoke	-L/2	Rspoke*sin(360.0/Nspokes)	Rspoke*Cos(360.0/Nspokes)	-L/2	Dwire/2000
GR	10	Nspokes
GW	2000	9	0	0	-L/2	0	0	L/2	Dwire/2000
GM	0	0	90	0	0	0	0	H
GE -1
LD	5	0	0	0	58000000
GN 2 0 0 0 11 0.01
EX	0	2000	5	0	1	0
FR	0	1	0	0	14.07	0
EN						
