CM
CM Y is North, Antenna is parallel to roof ridge line firing roughly NE-SW
CE
SY BASE=5.5
SY SD2=0.471873
SY SD=0.45365
SY XX=SD/1.414
SY XX2=SD2/1.414
'
GW	1	3	-0.01	0.	0.0	-XX2	0	XX2	.005
GW	2	3	-XX2	0.	XX2	0	0.0	2*XX2	.005
GW	3	3	0	0.	2*XX2	XX2	0.0	XX2	.005
GW	4	3	XX2	0.	XX2	0.01	0.0	0	.005

GM	0	0	0	0	0	0	0	2*XX

GW	11	3	-0.01	0.	0.0	-XX	0	XX	.005
GW	12	3	-XX	0.	XX	-0.01	0.0	2*XX	.005
GW	13	3	0.01	0.	2*XX	XX	0.0	XX	.005
GW	14	3	XX	0.	XX	0.01	0.0	0	.005

GW	99	1	-.01	0.	0	.01	0.0	0	.005

GM	0	0	0	90
GM	0	0	90	0
GM	0	0	0	0	32 	0	0	BASE
GM	0	0	0	0	90	0	0	0

GE -1
GN 2 0 0 0 11 0.01
EX	0	99	1	0	1.
FR	0	5	0	0	144.2	1.0
EN
