CE
GW	0	3	-3.7	0	3.5	-3.7	0	0	5.e-3
GW	1	3	-3.7	0	3.5	-3.7	0	5.1	5.e-3
GW	2	3	-3.7	0	5.1	0	0	8.6	5.e-3
GW	3	3	0	0	8.6	2.85	0	6	5.e-3
GW	4	3	2.85	0	6	2.85	2.8	6	5.e-3
GW	5	3	2.85	2.8	6	0	2.8	8.6	5.e-3
GW	6	3	0	2.8	8.6	-2.85	2.8	6	5.e-3
GE	1
EK
LD	5	0	0	0	5.8e7	0
EX	0	1	1	0	1	0
GN 2 0 0 0 11 0.01
FR	0	1	0	0	7.1	0
